Circuit: * C:\Users\kefer\Documents\Berkeley\Research\Charger\Simulations\FCML\FCML_lossSim\FCML_lossSim\FCML_5Level_EPC_D045_8A.asc

Early termination of direct N-R iteration.
Direct Newton iteration failed to find .op point.  (Use ".option noopiter" to skip.)
Starting Gmin stepping
Gmin = 10
Gmin = 1.07374
Gmin = 0.115292
Gmin = 0.0123794
Gmin = 0.00132923
Gmin = 0.000142725
Gmin = 1.5325e-005
Gmin = 1.6455e-006
Gmin = 1.76685e-007
Gmin = 1.89714e-008
Gmin = 2.03704e-009
Gmin = 2.18725e-010
Gmin = 2.34854e-011
Gmin = 0
Gmin stepping succeeded in finding the operating point.

Heightened Def Con from 4.67358e-005 to 4.6737e-005
Heightened Def Con from 0.000220335 to 0.000220335
Heightened Def Con from 0.000226792 to 0.000226792
Heightened Def Con from 0.000226792 to 0.000226793
Heightened Def Con from 0.000226794 to 0.000226795
Heightened Def Con from 0.000226795 to 0.000226795
Heightened Def Con from 0.000226795 to 0.000226796
Heightened Def Con from 0.000226796 to 0.000226796
Heightened Def Con from 0.000226796 to 0.000226796
Heightened Def Con from 0.000226796 to 0.000226796
Heightened Def Con from 0.000226796 to 0.000226796
Heightened Def Con from 0.000226796 to 0.000226796
Heightened Def Con from 0.000226796 to 0.000226796
Heightened Def Con from 0.000226796 to 0.000226797
Heightened Def Con from 0.000226797 to 0.000226797
Heightened Def Con from 0.000226797 to 0.000226797
Heightened Def Con from 0.000226797 to 0.000226797
Heightened Def Con from 0.000226797 to 0.000226797
Heightened Def Con from 0.000226797 to 0.000226797
Heightened Def Con from 0.000226797 to 0.000226797
Heightened Def Con from 0.000226797 to 0.000226798
Heightened Def Con from 0.000226798 to 0.000226799
Heightened Def Con from 0.000226799 to 0.000226799
Heightened Def Con from 0.000226799 to 0.000226799
Heightened Def Con from 0.000226799 to 0.000226799
Heightened Def Con from 0.000226799 to 0.000226799
Heightened Def Con from 0.000226799 to 0.000226799
Heightened Def Con from 0.000226799 to 0.000226799
Heightened Def Con from 0.000226799 to 0.000226799
Heightened Def Con from 0.000226799 to 0.000226799
Heightened Def Con from 0.000226799 to 0.000226799
Heightened Def Con from 0.000226799 to 0.000226799
Heightened Def Con from 0.000226799 to 0.0002268
Heightened Def Con from 0.0002268 to 0.0002268
Heightened Def Con from 0.000226801 to 0.000226801
Heightened Def Con from 0.000226801 to 0.000226801
Heightened Def Con from 0.000226801 to 0.000226801
Heightened Def Con from 0.000226801 to 0.000226801
Heightened Def Con from 0.000226801 to 0.000226801
Heightened Def Con from 0.000226801 to 0.000226803
Heightened Def Con from 0.000226803 to 0.000226803
Heightened Def Con from 0.000226803 to 0.000226803
Heightened Def Con from 0.000226803 to 0.000226803
Heightened Def Con from 0.000226804 to 0.000226804
Heightened Def Con from 0.000226805 to 0.000226807
Heightened Def Con from 0.00022681 to 0.00022681
Heightened Def Con from 0.000240061 to 0.000240061
Heightened Def Con from 0.000240061 to 0.000240062
Heightened Def Con from 0.00024567 to 0.000245673
Heightened Def Con from 0.000280077 to 0.000280078
Heightened Def Con from 0.000280078 to 0.00028008
Heightened Def Con from 0.000320335 to 0.000320341
Heightened Def Con from 0.000340082 to 0.000340082
Heightened Def Con from 0.000340082 to 0.000340083
Heightened Def Con from 0.000340083 to 0.000340083
Heightened Def Con from 0.000340083 to 0.000340083
Heightened Def Con from 0.000340083 to 0.000340083
Heightened Def Con from 0.000340083 to 0.000340083
Heightened Def Con from 0.000340083 to 0.000340083
Heightened Def Con from 0.000340083 to 0.000340084
Heightened Def Con from 0.000340084 to 0.000340084
Heightened Def Con from 0.000340084 to 0.000340084
Heightened Def Con from 0.000340084 to 0.000340084
Heightened Def Con from 0.000340084 to 0.000340084
Heightened Def Con from 0.000340084 to 0.000340084
Heightened Def Con from 0.000340084 to 0.000340084
Heightened Def Con from 0.000340084 to 0.000340084
Heightened Def Con from 0.000340084 to 0.000340084
Heightened Def Con from 0.000340084 to 0.000340084
Heightened Def Con from 0.000340084 to 0.000340084
Heightened Def Con from 0.000340084 to 0.000340084
Heightened Def Con from 0.000340084 to 0.000340084
Heightened Def Con from 0.000340084 to 0.000340084
Heightened Def Con from 0.000340084 to 0.000340085
Heightened Def Con from 0.000340085 to 0.000340085
Heightened Def Con from 0.000340085 to 0.000340086
Heightened Def Con from 0.000340086 to 0.000340086
Heightened Def Con from 0.000340086 to 0.000340086
Heightened Def Con from 0.000340086 to 0.000340086
Heightened Def Con from 0.000340086 to 0.000340086
Heightened Def Con from 0.000340086 to 0.000340086
Heightened Def Con from 0.000340086 to 0.000340086
Heightened Def Con from 0.000340086 to 0.000340086
Heightened Def Con from 0.000340086 to 0.000340086
Heightened Def Con from 0.000340086 to 0.000340087
Heightened Def Con from 0.000340087 to 0.000340087
Heightened Def Con from 0.000340087 to 0.000340087
Heightened Def Con from 0.000340087 to 0.000340087
Heightened Def Con from 0.000340087 to 0.000340089
Heightened Def Con from 0.000346734 to 0.000346734
Heightened Def Con from 0.000346734 to 0.000346734
Heightened Def Con from 0.000346734 to 0.000346736
Heightened Def Con from 0.000353394 to 0.000353395
Heightened Def Con from 0.000359002 to 0.000359007
Heightened Def Con from 0.000365664 to 0.000365666
Heightened Def Con from 0.00039346 to 0.000393461
Heightened Def Con from 0.000393461 to 0.000393461
Heightened Def Con from 0.000393461 to 0.000393462
Heightened Def Con from 0.000393462 to 0.000393465
Heightened Def Con from 0.000393597 to 0.000393598
Heightened Def Con from 0.000393598 to 0.000393598
Heightened Def Con from 0.000393598 to 0.000393598
Heightened Def Con from 0.000393599 to 0.000393599
Heightened Def Con from 0.000393599 to 0.000393599
Heightened Def Con from 0.000393599 to 0.000393601
Heightened Def Con from 0.000447002 to 0.000447008
Heightened Def Con from 0.000453419 to 0.000453419
Heightened Def Con from 0.000453419 to 0.000453419
Heightened Def Con from 0.000453419 +to 0.000453419
Heightened Def Con from 0.000453419 to 0.000453419
Heightened Def Con from 0.000453419 to 0.000453419
Heightened Def Con from 0.000453419 to 0.00045342
Heightened Def Con from 0.00045342 to 0.00045342
Heightened Def Con from 0.00045342 to 0.000453421
Heightened Def Con from 0.000453421 to 0.000453423
Heightened Def Con from 0.000453423 to 0.000453423
Heightened Def Con from 0.000453423 to 0.000453423
Heightened Def Con from 0.000453423 to 0.000453424
Heightened Def Con from 0.000453424 to 0.000453424
Heightened Def Con from 0.000453424 to 0.000453424
Heightened Def Con from 0.000453425 to 0.000453425
Heightened Def Con from 0.000453425 to 0.000453426
Heightened Def Con from 0.000453428 to 0.000453428
Heightened Def Con from 0.000460067 to 0.000460069
Heightened Def Con from 0.000473391 to 0.000473393
Heightened Def Con from 0.000513668 to 0.000513674
Heightened Def Con from 0.000520335 to 0.000520341
Heightened Def Con from 0.000547002 to 0.000547008
Heightened Def Con from 0.000560335 to 0.000560341
Heightened Def Con from 0.000573407 to 0.00057341
Heightened Def Con from 0.000580067 to 0.000580069
Heightened Def Con from 0.000606741 to 0.000606741
Heightened Def Con from 0.000606741 to 0.000606741
Heightened Def Con from 0.000606741 to 0.000606741
Heightened Def Con from 0.000606741 to 0.000606741
Heightened Def Con from 0.000606741 to 0.000606743
Heightened Def Con from 0.000673668 to 0.000673676
Heightened Def Con from 0.0006868 to 0.000686803
Heightened Def Con from 0.000686814 to 0.000686814
Heightened Def Con from 0.000686817 to 0.000686819
Heightened Def Con from 0.000686821 to 0.000686823
Heightened Def Con from 0.000686823 to 0.000686823
Heightened Def Con from 0.000686823 to 0.000686826
Heightened Def Con from 0.000686829 to 0.000686831
Heightened Def Con from 0.000686831 to 0.000686832
Heightened Def Con from 0.000686832 to 0.000686834
Heightened Def Con from 0.000686841 to 0.000686842
Heightened Def Con from 0.00068685 to 0.000686852
Heightened Def Con from 0.000687001 to 0.00068701
Heightened Def Con from 0.000693412 to 0.000693412
Heightened Def Con from 0.000693412 to 0.000693412
Heightened Def Con from 0.000693412 to 0.000693412
Heightened Def Con from 0.000693412 to 0.000693414
Heightened Def Con from 0.000693414 to 0.000693415
Heightened Def Con from 0.000706743 to 0.000706743
Heightened Def Con from 0.000706743 to 0.000706743
Heightened Def Con from 0.000706743 to 0.000706744
Heightened Def Con from 0.000706744 to 0.000706745
Heightened Def Con from 0.000706745 to 0.000706745
Heightened Def Con from 0.000713462 to 0.000713462
Heightened Def Con from 0.000720335 to 0.000720344
Heightened Def Con from 0.000780335 to 0.000780341
Heightened Def Con from 0.000793668 to 0.000793676
Heightened Def Con from 0.000800335 to 0.000800343
Heightened Def Con from 0.000807001 to 0.000807009
Heightened Def Con from 0.000853668 to 0.000853674
Heightened Def Con from 0.001107 to 0.00110701
Heightened Def Con from 0.00403367 to 0.00403367
Heightened Def Con from 0.004707 to 0.00470701
Heightened Def Con from 0.00518034 to 0.00518034
Heightened Def Con from 0.00524034 to 0.00524034
Heightened Def Con from 0.00803367 to 0.00803367
Heightened Def Con from 0.009187 to 0.00918701
Heightened Def Con from 0.009207 to 0.00920701
Heightened Def Con from 0.00947367 to 0.00947367
Heightened Def Con from 0.00950034 to 0.00950034
Heightened Def Con from 0.00997367 to 0.00997367

vout: AVG(v(out))=175.62 FROM 0 TO 0.000666667
ilrms: RMS(i(l1))=8.02119 FROM 0 TO 0.000666667
plwinding: ilrms*ilrms*0.0093=0.598357
ph1: AVG(v(in,s1)*ix(u9:drainin))=3.1503 FROM 0 TO 0.000666667
ph2: AVG(v(s1,s2)*ix(u7:drainin))=4.07853 FROM 0 TO 0.000666667
ph3: AVG(v(s2,s3)*ix(u5:drainin))=3.10508 FROM 0 TO 0.000666667
ph4: AVG(v(s3,s4)*ix(u3:drainin))=3.98401 FROM 0 TO 0.000666667
ph5: AVG(v(s4,sw)*ix(u1:drainin))=3.31447 FROM 0 TO 0.000666667
plow1: AVG(v(s8)*ix(u10:drainin))=0.577917 FROM 0 TO 0.000666667
plow2: AVG(v(s7,s8)*ix(u8:drainin))=0.568694 FROM 0 TO 0.000666667
plow3: AVG(v(s6,s7)*ix(u6:drainin))=0.551141 FROM 0 TO 0.000666667
plow4: AVG(v(s5,s6)*ix(u4:drainin))=0.588083 FROM 0 TO 0.000666667
plow5: AVG(v(sw,s5)*ix(u2:drainin))=0.554084 FROM 0 TO 0.000666667


Date: Mon Sep 06 13:52:46 2021
Total elapsed time: 1018.260 seconds.

tnom = 27
temp = 27
method = Gear
totiter = 17834698
traniter = 17834443
tranpoints = 4577187
accept = 3929044
rejected = 648321
matrix size = 72
fillins = 172
solver = Normal
Thread vector: 27.9/13.4[3] 8.2/6.7[3] 4.8/3.0[3] 0.4/1.1[1]  2592/500
Matrix Compiler1: 12.83 KB object code size  2.0/1.2/[0.6]
Matrix Compiler2: 8.43 KB object code size  0.6/0.9/[0.3]

