Circuit: * C:\Users\kefer\Documents\Berkeley\Research\Charger\Simulations\FCML\FCML_lossSim\FCML_lossSim\FCML_5Level_GaNSys_D045_8A.asc

.OP point found by inspection.
Heightened Def Con from 2.16687e-005 to 2.16827e-005
Heightened Def Con from 2.16867e-005 to 2.16878e-005
Heightened Def Con from 2.53333e-005 to 2.53344e-005
Heightened Def Con from 2.56699e-005 to 2.56713e-005
Heightened Def Con from 2.8e-005 to 2.80003e-005
Heightened Def Con from 3.50016e-005 to 3.50037e-005
Heightened Def Con from 3.50037e-005 to 3.50167e-005
Heightened Def Con from 3.50167e-005 to 3.50198e-005
Heightened Def Con from 3.502e-005 to 3.5023e-005
Heightened Def Con from 3.50263e-005 to 3.50303e-005
Heightened Def Con from 3.50303e-005 to 3.50333e-005
Heightened Def Con from 3.50333e-005 to 3.50363e-005
Heightened Def Con from 3.50378e-005 to 3.50518e-005
Heightened Def Con from 4.39831e-005 to 4.39912e-005
Heightened Def Con from 4.39914e-005 to 4.39914e-005
Heightened Def Con from 4.39914e-005 to 4.39914e-005
Heightened Def Con from 4.39914e-005 to 4.39914e-005
Heightened Def Con from 4.39915e-005 to 4.39916e-005
Heightened Def Con from 4.39916e-005 to 4.39938e-005
Heightened Def Con from 4.3994e-005 +to 4.39946e-005
Heightened Def Con from 4.56698e-005 to 4.56828e-005
Heightened Def Con from 4.5686e-005 to 4.56868e-005
Heightened Def Con from 4.66907e-005 to 4.67017e-005
Heightened Def Con from 5.19831e-005 to 5.19846e-005
Heightened Def Con from 5.19846e-005 to 5.19956e-005
Heightened Def Con from 5.23335e-005 to 5.23344e-005
Heightened Def Con from 5.23364e-005 to 5.23514e-005
Heightened Def Con from 5.50018e-005 to 5.50028e-005
Heightened Def Con from 5.50028e-005 to 5.50067e-005
Heightened Def Con from 5.59864e-005 to 5.59868e-005
Heightened Def Con from 6.16685e-005 to 6.16795e-005
Heightened Def Con from 6.16868e-005 to 6.16908e-005
Heightened Def Con from 6.26516e-005 to 6.26636e-005
Heightened Def Con from 6.45619e-005 to 6.45621e-005
Heightened Def Con from 6.45621e-005 to 6.45632e-005
Heightened Def Con from 6.45632e-005 +to 6.45634e-005
Heightened Def Con from 6.45634e-005 to 6.45636e-005
Heightened Def Con from 6.45636e-005 +to 6.45666e-005
Heightened Def Con from 6.47308e-005 to 6.47309e-005
Heightened Def Con from 6.47309e-005 to 6.4731e-005
Heightened Def Con from 6.47313e-005 to 6.47313e-005
Heightened Def Con from 6.47314e-005 +to 6.47315e-005
Heightened Def Con from 6.47315e-005 to 6.47316e-005
Heightened Def Con from 6.47316e-005 to 6.47316e-005
Heightened Def Con from 6.47316e-005 +to 6.47327e-005
Heightened Def Con from 6.4733e-005 to 6.47341e-005
Heightened Def Con from 6.60341e-005 to 6.60361e-005
Heightened Def Con from 6.60363e-005 to 6.60375e-005
Heightened Def Con from 6.60375e-005 to 6.60395e-005
Heightened Def Con from 6.60421e-005 +to 6.60422e-005
Heightened Def Con from 6.60425e-005 +to 6.60435e-005
Heightened Def Con from 6.60435e-005 to 6.60435e-005
Heightened Def Con from 6.60435e-005 to 6.60435e-005
Heightened Def Con from 6.60435e-005 to 6.60455e-005
Heightened Def Con from 6.60455e-005 to 6.60465e-005
Heightened Def Con from 6.60465e-005 to 6.60475e-005
Heightened Def Con from 6.6414e-005 to 6.6414e-005
Heightened Def Con from 6.6414e-005 ++to 6.64181e-005
Heightened Def Con from 6.66474e-005 to 6.66478e-005
Heightened Def Con from 6.6651e-005 to 6.66591e-005
Heightened Def Con from 6.93188e-005 to 6.93288e-005
Heightened Def Con from 7.06522e-005 to 7.06642e-005
Heightened Def Con from 7.10097e-005 to 7.10147e-005
Heightened Def Con from 7.1019e-005 to 7.10201e-005
Heightened Def Con from 7.10403e-005 +to 7.10433e-005
Heightened Def Con from 7.19814e-005 to 7.19835e-005
Heightened Def Con from 7.19837e-005 to 7.19967e-005
Heightened Def Con from 7.20187e-005 to 7.20227e-005
Heightened Def Con from 7.20227e-005 to 7.20327e-005
Heightened Def Con from 7.20327e-005 to 7.20357e-005
Heightened Def Con from 7.20521e-005 to 7.20641e-005
Heightened Def Con from 7.20641e-005 to 7.20671e-005
Heightened Def Con from 7.20671e-005 to 7.20701e-005
Heightened Def Con from 7.20701e-005 to 7.20731e-005
Heightened Def Con from 7.23333e-005 +to 7.23503e-005
Heightened Def Con from 7.23503e-005 to 7.23573e-005
Heightened Def Con from 7.23573e-005 to 7.23663e-005
Heightened Def Con from 7.23663e-005 +to 7.23675e-005
Heightened Def Con from 7.23675e-005 to 7.23705e-005
Heightened Def Con from 7.23705e-005 +to 7.23736e-005
Heightened Def Con from 7.24492e-005 +++to 7.24523e-005
Heightened Def Con from 7.24523e-005 ++to 7.24564e-005
Heightened Def Con from 7.25949e-005 to 7.25959e-005
Heightened Def Con from 7.25959e-005 to 7.25989e-005
Heightened Def Con from 7.26169e-005 to 7.26199e-005
Heightened Def Con from 7.26264e-005 to 7.26294e-005
Heightened Def Con from 7.26314e-005 +to 7.26354e-005
Heightened Def Con from 7.26374e-005 +to 7.26404e-005
Heightened Def Con from 7.26424e-005 ++++to 7.26435e-005
Heightened Def Con from 7.26435e-005 to 7.26437e-005
Heightened Def Con from 7.26438e-005 ++++to 7.26478e-005
Heightened Def Con from 7.26498e-005 ++++to 7.2654e-005
Heightened Def Con from 7.2654e-005 ++++to 7.2659e-005
Heightened Def Con from 7.2659e-005 ++to 7.2662e-005
Heightened Def Con from 7.2663e-005 +++++to 7.2666e-005
Heightened Def Con from 7.2667e-005 ++to 7.2669e-005
Heightened Def Con from 7.26762e-005 ++++++++++++++++++++++++++++++++++++++++++++++++++Fatal Error: Analysis:  Time step too small; time = 7.26823e-005, timestep = 1.25e-019: trouble with node "v11#branch"

