Circuit: * C:\Users\kefer\Documents\Berkeley\Research\Charger\Simulations\FCML\FCML_lossSim\FCML_lossSim\FCML_6Level_idealSW.asc

Direct Newton iteration for .op point succeeded.
Ignoring empty pin current: Ix(x1:g)
Ignoring empty pin current: Ix(x2:g)
Ignoring empty pin current: Ix(x3:g)
Ignoring empty pin current: Ix(x4:g)
Ignoring empty pin current: Ix(x5:g)
Ignoring empty pin current: Ix(x6:g)
Ignoring empty pin current: Ix(x7:g)
Ignoring empty pin current: Ix(x8:g)
Ignoring empty pin current: Ix(x9:g)
Ignoring empty pin current: Ix(x10:g)
Ignoring empty pin current: Ix(x1:g)
Ignoring empty pin current: Ix(x2:g)
Ignoring empty pin current: Ix(x3:g)
Ignoring empty pin current: Ix(x4:g)
Ignoring empty pin current: Ix(x5:g)
Ignoring empty pin current: Ix(x6:g)
Ignoring empty pin current: Ix(x7:g)
Ignoring empty pin current: Ix(x8:g)
Ignoring empty pin current: Ix(x9:g)
Ignoring empty pin current: Ix(x10:g)

Date: Mon Sep 06 12:47:15 2021
Total elapsed time: 10.781 seconds.

tnom = 27
temp = 27
method = modified trap
totiter = 5556269
traniter = 5556264
tranpoints = 1924045
accept = 1476020
rejected = 448025
matrix size = 32
fillins = 6
solver = Normal
Matrix Compiler1: 1.31 KB object code size  0.3/0.2/[0.1]
Matrix Compiler2: 2.18 KB object code size  0.2/0.3/[0.2]

