Circuit: * C:\Users\kefer\Documents\Berkeley\Research\Charger\Simulations\FCML\FCML_lossSim\FCML_lossSim\FCML_5Level_EPC_D015_2A.asc

Early termination of direct N-R iteration.
Direct Newton iteration failed to find .op point.  (Use ".option noopiter" to skip.)
Starting Gmin stepping
Gmin = 10
Gmin = 1.07374
Gmin = 0.115292
Gmin = 0.0123794
Gmin = 0.00132923
Gmin = 0.000142725
Gmin = 1.5325e-005
Gmin = 1.6455e-006
Gmin = 1.76685e-007
Gmin = 1.89714e-008
Gmin = 2.03704e-009
Gmin = 2.18725e-010
Gmin = 2.34854e-011
Gmin = 2.52173e-012
Gmin = 2.70769e-013
Gmin = 0
Gmin stepping succeeded in finding the operating point.

Heightened Def Con from 6.66677e-005 to 6.66717e-005
Heightened Def Con from 9.12625e-005 to 9.12626e-005
Heightened Def Con from 9.12626e-005 to 9.12636e-005
Heightened Def Con from 9.12636e-005 to 9.12656e-005
Heightened Def Con from 0.000125044 to 0.000125044
Heightened Def Con from 0.000125044 to 0.000125045
Heightened Def Con from 0.000125045 to 0.000125045
Heightened Def Con from 0.000125045 +to 0.000125045
Heightened Def Con from 0.000125045 to 0.000125045
Heightened Def Con from 0.000125045 +to 0.000125046
Heightened Def Con from 0.000125046 to 0.000125046
Heightened Def Con from 0.000125046 to 0.000125046
Heightened Def Con from 0.000125046 to 0.000125046
Heightened Def Con from 0.000125046 to 0.000125046
Heightened Def Con from 0.000125046 to 0.000125046
Heightened Def Con from 0.000125046 to 0.000125046
Heightened Def Con from 0.000125046 to 0.000125046
Heightened Def Con from 0.000125046 to 0.000125046
Heightened Def Con from 0.000125046 to 0.000125046
Heightened Def Con from 0.000125046 to 0.000125047
Heightened Def Con from 0.000125047 to 0.000125047
Heightened Def Con from 0.000125047 to 0.000125047
Heightened Def Con from 0.000125047 to 0.000125047
Heightened Def Con from 0.000125047 to 0.000125047
Heightened Def Con from 0.000125047 to 0.000125048
Heightened Def Con from 0.000125048 to 0.000125049
Heightened Def Con from 0.000125049 to 0.000125049
Heightened Def Con from 0.000125049 to 0.000125049
Heightened Def Con from 0.000125049 to 0.000125051
Heightened Def Con from 0.000125051 to 0.000125054
Heightened Def Con from 0.000125055 to 0.000125058
Heightened Def Con from 0.000144786 to 0.000144786
Heightened Def Con from 0.000144786 to 0.000144787
Heightened Def Con from 0.000144787 to 0.000144788
Heightened Def Con from 0.00014479 to 0.000144792
Heightened Def Con from 0.000146413 to 0.000146416
Heightened Def Con from 0.000151543 to 0.000151543
Heightened Def Con from 0.000151543 to 0.000151544
Heightened Def Con from 0.000151544 to 0.000151544
Heightened Def Con from 0.000151544 to 0.000151545
Heightened Def Con from 0.000151545 +to 0.000151545
Heightened Def Con from 0.000151545 to 0.000151545
Heightened Def Con from 0.000151545 to 0.000151545
Heightened Def Con from 0.000151545 to 0.000151545
Heightened Def Con from 0.000151545 to 0.000151547
Heightened Def Con from 0.000161333 to 0.000161334
Heightened Def Con from 0.000166697 to 0.000166698
Heightened Def Con from 0.000166699 to 0.000166702
Heightened Def Con from 0.000171556 to 0.000171558
Heightened Def Con from 0.000180029 to 0.000180029
Heightened Def Con from 0.000180029 to 0.000180034
Heightened Def Con from 0.000181334 to 0.000181337
Heightened Def Con from 0.000193377 to 0.00019338
Heightened Def Con from 0.000198308 to 0.000198309
Heightened Def Con from 0.00019831 to 0.00019831
Heightened Def Con from 0.00019831 to 0.00019831
Heightened Def Con from 0.00019831 to 0.00019831
Heightened Def Con from 0.00019831 to 0.00019831
Heightened Def Con from 0.00019831 to 0.000198312
Heightened Def Con from 0.000199982 to 0.000199983
Heightened Def Con from 0.000204873 to 0.000204873
Heightened Def Con from 0.000204873 to 0.000204873
Heightened Def Con from 0.000204873 to 0.000204873
Heightened Def Con from 0.000204873 to 0.000204873
Heightened Def Con from 0.000204873 to 0.000204874
Heightened Def Con from 0.000204874 to 0.000204874
Heightened Def Con from 0.000204874 to 0.000204875
Heightened Def Con from 0.000204875 to 0.000204875
Heightened Def Con from 0.000204875 to 0.000204876
Heightened Def Con from 0.000204876 to 0.000204878
Heightened Def Con from 0.000208005 to 0.000208008
Heightened Def Con from 0.000211672 to 0.000211672
Heightened Def Con from 0.000211672 to 0.000211672
Heightened Def Con from 0.000211672 +to 0.000211674
Heightened Def Con from 0.000211674 to 0.000211674
Heightened Def Con from 0.000211674 to 0.000211675
Heightened Def Con from 0.000211675 to 0.000211675
Heightened Def Con from 0.000211675 to 0.000211675
Heightened Def Con from 0.000211675 to 0.000211675
Heightened Def Con from 0.000211675 to 0.000211676
Heightened Def Con from 0.000211677 to 0.000211678
Heightened Def Con from 0.000217315 to 0.000217315
Heightened Def Con from 0.000225011 to 0.000225011
Heightened Def Con from 0.000225011 to 0.000225011
Heightened Def Con from 0.000225011 to 0.000225013
Heightened Def Con from 0.000225013 to 0.000225014
Heightened Def Con from 0.000225014 to 0.000225014
Heightened Def Con from 0.000225014 +to 0.000225016
Heightened Def Con from 0.00022502 to 0.00022502
Heightened Def Con from 0.000225143 to 0.000225146
Heightened Def Con from 0.000231668 to 0.000231668
Heightened Def Con from 0.000231668 to 0.000231669
Heightened Def Con from 0.000238301 ++to 0.000238301
Heightened Def Con from 0.000238301 to 0.000238301
Heightened Def Con from 0.000238301 to 0.000238301
Heightened Def Con from 0.000238301 ++to 0.000238301
Heightened Def Con from 0.000238301 +to 0.000238301
Heightened Def Con from 0.000238301 +to 0.000238301
Heightened Def Con from 0.000238301 +to 0.000238301
Heightened Def Con from 0.000238301 to 0.000238302
Heightened Def Con from 0.000238302 to 0.000238302
Heightened Def Con from 0.000238302 to 0.000238302
Heightened Def Con from 0.000238302 to 0.000238302
Heightened Def Con from 0.000238302 to 0.000238304
Heightened Def Con from 0.000243158 to 0.000243161
Heightened Def Con from 0.000245054 to 0.000245054
Heightened Def Con from 0.000245054 to 0.000245054
Heightened Def Con from 0.000245054 +to 0.000245054
Heightened Def Con from 0.000245054 to 0.000245054
Heightened Def Con from 0.000245054 to 0.000245054
Heightened Def Con from 0.000245054 to 0.000245054
Heightened Def Con from 0.000245054 to 0.000245054
Heightened Def Con from 0.000245054 to 0.000245054
Heightened Def Con from 0.000245054 to 0.000245054
Heightened Def Con from 0.000245054 to 0.000245057
Heightened Def Con from 0.000245057 to 0.000245057
Heightened Def Con from 0.000245057 to 0.000245057
Heightened Def Con from 0.000245057 to 0.000245058
Heightened Def Con from 0.000245058 to 0.000245059
Heightened Def Con from 0.000245059 to 0.000245059
Heightened Def Con from 0.000245059 to 0.00024506
Heightened Def Con from 0.00024506 to 0.000245063
Heightened Def Con from 0.000245097 to 0.0002451
Heightened Def Con from 0.000249863 to 0.000249863
Heightened Def Con from 0.000249863 to 0.000249866
Heightened Def Con from 0.000254679 to 0.000254682
Heightened Def Con from 0.000256575 to 0.000256577
Heightened Def Con from 0.000258299 to 0.0002583
Heightened Def Con from 0.0002583 to 0.0002583
Heightened Def Con from 0.0002583 to 0.0002583
Heightened Def Con from 0.0002583 to 0.0002583
Heightened Def Con from 0.0002583 to 0.0002583
Heightened Def Con from 0.0002583 +to 0.000258301
Heightened Def Con from 0.000258301 to 0.000258301
Heightened Def Con from 0.000258301 to 0.000258303
Heightened Def Con from 0.000258303 to 0.000258303
Heightened Def Con from 0.000258303 to 0.000258303
Heightened Def Con from 0.000258303 to 0.000258303
Heightened Def Con from 0.000258303 to 0.000258303
Heightened Def Con from 0.000258303 to 0.000258304
Heightened Def Con from 0.000258304 to 0.000258305
Heightened Def Con from 0.000258305 to 0.000258306
Heightened Def Con from 0.000258306 to 0.000258307
Heightened Def Con from 0.000258307 to 0.000258309
Heightened Def Con from 0.000259982 to 0.00025999
Heightened Def Con from 0.000263254 to 0.000263257
Heightened Def Con from 0.000264979 to 0.000264979
Heightened Def Con from 0.000264979 to 0.000264979
Heightened Def Con from 0.000264979 +to 0.000264979
Heightened Def Con from 0.000264979 to 0.000264979
Heightened Def Con from 0.000264979 to 0.000264979
Heightened Def Con from 0.000264979 to 0.00026498
Heightened Def Con from 0.00026498 +++to 0.000264981
Heightened Def Con from 0.000264985 to 0.000264985
Heightened Def Con from 0.000264985 to 0.000264985
Heightened Def Con from 0.000264985 to 0.000264987
Heightened Def Con from 0.000266649 to 0.000266657
Heightened Def Con from 0.000266759 to 0.000266759
Heightened Def Con from 0.000266759 to 0.000266759
Heightened Def Con from 0.000266759 to 0.000266759
Heightened Def Con from 0.000266759 to 0.000266759
Heightened Def Con from 0.000266759 to 0.000266759
Heightened Def Con from 0.000266759 to 0.00026676
Heightened Def Con from 0.00026676 to 0.00026676
Heightened Def Con from 0.00026676 to 0.00026676
Heightened Def Con from 0.00026676 to 0.000266761
Heightened Def Con from 0.000266761 to 0.000266761
Heightened Def Con from 0.000266761 to 0.000266761
Heightened Def Con from 0.000267682 to 0.000267683
Heightened Def Con from 0.000268337 to 0.000268337
Heightened Def Con from 0.000268337 to 0.000268337
Heightened Def Con from 0.000268337 to 0.000268337
Heightened Def Con from 0.000268337 to 0.000268337
Heightened Def Con from 0.000268337 to 0.000268337
Heightened Def Con from 0.000268337 to 0.000268337
Heightened Def Con from 0.000268337 to 0.000268337
Heightened Def Con from 0.000268337 to 0.000268338
Heightened Def Con from 0.000268359 +to 0.00026836
Heightened Def Con from 0.000269929 to 0.00026993
Heightened Def Con from 0.000269932 to 0.000269932
Heightened Def Con from 0.000269932 +to 0.000269932
Heightened Def Con from 0.000269932 +to 0.000269932
Heightened Def Con from 0.000269932 to 0.000269932
Heightened Def Con from 0.000269933 to 0.000269933
Heightened Def Con from 0.000269934 to 0.000269934
Heightened Def Con from 0.000271698 to 0.000271698
Heightened Def Con from 0.000271698 to 0.000271698
Heightened Def Con from 0.000271698 to 0.000271698
Heightened Def Con from 0.000271698 to 0.000271698
Heightened Def Con from 0.000271698 +to 0.000271698
Heightened Def Con from 0.000271698 +to 0.000271699
Heightened Def Con from 0.000271699 to 0.000271699
Heightened Def Con from 0.000271699 to 0.000271699
Heightened Def Con from 0.000271699 to 0.000271699
Heightened Def Con from 0.000271699 +to 0.000271699
Heightened Def Con from 0.000271699 +to 0.000271699
Heightened Def Con from 0.000271699 to 0.000271699
Heightened Def Con from 0.000271699 to 0.0002717
Heightened Def Con from 0.0002717 to 0.0002717
Heightened Def Con from 0.0002717 +to 0.0002717
Heightened Def Con from 0.0002717 to 0.0002717
Heightened Def Con from 0.0002717 to 0.000271701
Heightened Def Con from 0.000271701 to 0.000271701
Heightened Def Con from 0.000271701 to 0.000271701
Heightened Def Con from 0.000271701 to 0.000271701
Heightened Def Con from 0.000271701 to 0.000271704
Heightened Def Con from 0.000271704 to 0.000271704
Heightened Def Con from 0.000271704 to 0.000271704
Heightened Def Con from 0.000271704 to 0.000271705
Heightened Def Con from 0.000271705 to 0.000271707
Heightened Def Con from 0.000271707 to 0.000271707
Heightened Def Con from 0.000271707 to 0.000271707
Heightened Def Con from 0.000271707 to 0.00027171
Heightened Def Con from 0.000271786 to 0.000271786
Heightened Def Con from 0.000271786 to 0.000271786
Heightened Def Con from 0.000271786 to 0.000271786
Heightened Def Con from 0.000271787 to 0.000271788
Heightened Def Con from 0.000273315 to 0.000273323
Heightened Def Con from 0.000274351 to 0.000274352
Heightened Def Con from 0.000274352 to 0.000274352
Heightened Def Con from 0.000274352 to 0.000274353
Heightened Def Con from 0.000274355 to 0.000274355
Heightened Def Con from 0.000274355 to 0.000274355
Heightened Def Con from 0.000274355 to 0.000274355
Heightened Def Con from 0.000274355 to 0.000274355
Heightened Def Con from 0.000274355 to 0.000274361
Heightened Def Con from 0.000275032 to 0.000275032
Heightened Def Con from 0.000275032 to 0.000275033
Heightened Def Con from 0.000275037 to 0.000275037
Heightened Def Con from 0.000275043 to 0.000275043
Heightened Def Con from 0.000275043 to 0.000275043
Heightened Def Con from 0.000275043 to 0.000275043
Heightened Def Con from 0.000275043 +to 0.000275043
Heightened Def Con from 0.000275043 to 0.000275043
Heightened Def Con from 0.000275043 to 0.000275043
Heightened Def Con from 0.000275043 to 0.000275043
Heightened Def Con from 0.000275043 to 0.000275043
Heightened Def Con from 0.000275043 to 0.000275044
Heightened Def Con from 0.000275044 to 0.000275045
Heightened Def Con from 0.000275063 to 0.000275063
Heightened Def Con from 0.000275142 to 0.000275142
Heightened Def Con from 0.000275142 to 0.000275142
Heightened Def Con from 0.000275142 to 0.000275144
Heightened Def Con from 0.000275148 to 0.000275148
Heightened Def Con from 0.000275158 to 0.000275158
Heightened Def Con from 0.000275163 to 0.000275163
Heightened Def Con from 0.000275163 to 0.000275164
Heightened Def Con from 0.000275181 to 0.000275181
Heightened Def Con from 0.000275191 to 0.000275191
Heightened Def Con from 0.000275203 to 0.000275206
Heightened Def Con from 0.000275257 to 0.000275257
Heightened Def Con from 0.000275263 to 0.000275263
Heightened Def Con from 0.000275307 to 0.000275308
Heightened Def Con from 0.00027534 to 0.00027534
Heightened Def Con from 0.000275374 to 0.000275374
Heightened Def Con from 0.000275414 to 0.000275414
Heightened Def Con from 0.000275423 to 0.000275423
Heightened Def Con from 0.000275432 to 0.000275432
Heightened Def Con from 0.000275438 to 0.000275439
Heightened Def Con from 0.000275445 to 0.000275446
Heightened Def Con from 0.000275454 to 0.000275455
Heightened Def Con from 0.000275473 to 0.000275474
Heightened Def Con from 0.000275516 to 0.000275516
Heightened Def Con from 0.000275533 to 0.000275533
Heightened Def Con from 0.000275533 to 0.000275533
Heightened Def Con from 0.000275559 to 0.00027556
Heightened Def Con from 0.00027556 to 0.000275561
Heightened Def Con from 0.00027557 to 0.000275571
Heightened Def Con from 0.000275572 to 0.000275572
Heightened Def Con from 0.000275583 to 0.000275584
Heightened Def Con from 0.000275589 to 0.000275589
Heightened Def Con from 0.000275607 to 0.000275608
Heightened Def Con from 0.00027562 to 0.00027562
Heightened Def Con from 0.000275632 to 0.000275632
Heightened Def Con from 0.000275636 to 0.000275637
Heightened Def Con from 0.00027564 to 0.00027564
Heightened Def Con from 0.000275659 to 0.000275659
Heightened Def Con from 0.00027566 to 0.00027566
Heightened Def Con from 0.000275673 to 0.000275673
Heightened Def Con from 0.000275673 to 0.000275673
Heightened Def Con from 0.000275678 to 0.000275678
Heightened Def Con from 0.000275679 to 0.00027568
Heightened Def Con from 0.000275686 to 0.000275686
Heightened Def Con from 0.000275687 to 0.000275687
Heightened Def Con from 0.000275687 to 0.000275687
Heightened Def Con from 0.000275687 to 0.000275687
Heightened Def Con from 0.000275688 to 0.000275688
Heightened Def Con from 0.000275688 to 0.000275688
Heightened Def Con from 0.000275688 to 0.000275688
Heightened Def Con from 0.000275688 to 0.000275688
Heightened Def Con from 0.000275688 to 0.000275689
Heightened Def Con from 0.00027569 to 0.000275691
Heightened Def Con from 0.000275703 to 0.000275704
Heightened Def Con from 0.000275707 to 0.000275709
Heightened Def Con from 0.000275714 to 0.000275714
Heightened Def Con from 0.000275714 to 0.000275714
Heightened Def Con from 0.00027573 to 0.000275731
Heightened Def Con from 0.000275732 to 0.000275732
Heightened Def Con from 0.000275736 to 0.000275736
Heightened Def Con from 0.000275745 to 0.000275745
Heightened Def Con from 0.000275745 to 0.000275745
Heightened Def Con from 0.000275745 to 0.000275745
Heightened Def Con from 0.000275745 to 0.000275745
Heightened Def Con from 0.000275745 to 0.000275745
Heightened Def Con from 0.000275745 to 0.000275745
Heightened Def Con from 0.000275745 to 0.000275745
Heightened Def Con from 0.000275745 to 0.000275745
Heightened Def Con from 0.000275745 to 0.000275745
Heightened Def Con from 0.000275745 to 0.000275745
Heightened Def Con from 0.000275745 to 0.000275745
Heightened Def Con from 0.000275745 to 0.000275745
Heightened Def Con from 0.000275745 to 0.000275745
Heightened Def Con from 0.000275745 to 0.000275745
Heightened Def Con from 0.000275745 to 0.000275745
Heightened Def Con from 0.000275745 to 0.000275745
Heightened Def Con from 0.000275745 to 0.000275745
Heightened Def Con from 0.000275745 to 0.000275745
Heightened Def Con from 0.000275745 to 0.000275745
Heightened Def Con from 0.000275745 to 0.000275745
Heightened Def Con from 0.000275745 to 0.000275745
Heightened Def Con from 0.000275745 to 0.000275745
Heightened Def Con from 0.000275745 to 0.000275745
Heightened Def Con from 0.000275745 to 0.000275746
Heightened Def Con from 0.000275746 to 0.000275746
Heightened Def Con from 0.000275746 to 0.000275746
Heightened Def Con from 0.000275746 to 0.000275746
Heightened Def Con from 0.000275746 to 0.000275746
Heightened Def Con from 0.000275746 to 0.000275746
Heightened Def Con from 0.000275746 to 0.000275746
Heightened Def Con from 0.000275746 to 0.000275746
Heightened Def Con from 0.000275746 to 0.000275746
Heightened Def Con from 0.000275746 to 0.000275746
Heightened Def Con from 0.000275746 to 0.000275746
Heightened Def Con from 0.000275746 to 0.000275746
Heightened Def Con from 0.000275746 to 0.000275746
Heightened Def Con from 0.000275746 to 0.000275747
Heightened Def Con from 0.000275747 to 0.000275747
Heightened Def Con from 0.000275747 to 0.000275747
Heightened Def Con from 0.000275747 to 0.000275747
Heightened Def Con from 0.000275747 to 0.000275747
Heightened Def Con from 0.000275747 to 0.000275747
Heightened Def Con from 0.000275747 to 0.000275747
Heightened Def Con from 0.000275747 to 0.000275747
Heightened Def Con from 0.000275747 to 0.000275747
Heightened Def Con from 0.000275747 to 0.000275747
Heightened Def Con from 0.000275747 to 0.000275747
Heightened Def Con from 0.000275747 to 0.000275747
Heightened Def Con from 0.000275747 to 0.000275747
Heightened Def Con from 0.000275747 to 0.000275747
Heightened Def Con from 0.000275747 to 0.000275747
Heightened Def Con from 0.000275747 to 0.000275747
Heightened Def Con from 0.000275747 to 0.000275747
Heightened Def Con from 0.00027575 to 0.00027575
Heightened Def Con from 0.000275761 to 0.000275761
Heightened Def Con from 0.000275871 to 0.000275871
Heightened Def Con from 0.000275909 to 0.000275909
Heightened Def Con from 0.000275927 to 0.000275927
Heightened Def Con from 0.000275927 to 0.000275927
Heightened Def Con from 0.000275927 to 0.000275927
Heightened Def Con from 0.000275927 to 0.000275927
Heightened Def Con from 0.000275927 to 0.000275927
Heightened Def Con from 0.000275927 to 0.000275928
Heightened Def Con from 0.000275953 to 0.000275953
Heightened Def Con from 0.000275966 to 0.000275966
Heightened Def Con from 0.00027597 to 0.00027597
Heightened Def Con from 0.000276636 to 0.000276639
Heightened Def Con from 0.000276642 to 0.000276642
Heightened Def Con from 0.000276643 to 0.000276643
Heightened Def Con from 0.000276645 to 0.000276645
Heightened Def Con from 0.000278373 to 0.000278373
Heightened Def Con from 0.000278373 to 0.000278373
Heightened Def Con from 0.000278373 to 0.000278373
Heightened Def Con from 0.000278373 to 0.000278373
Heightened Def Con from 0.000278374 to 0.000278374
Heightened Def Con from 0.000278374 to 0.000278374
Heightened Def Con from 0.000278374 ++to 0.000278374
Heightened Def Con from 0.000278374 to 0.000278374
Heightened Def Con from 0.000278374 ++to 0.000278374
Heightened Def Con from 0.000278374 ++to 0.000278374
Heightened Def Con from 0.000278374 to 0.000278374
Heightened Def Con from 0.000278374 ++to 0.000278374
Heightened Def Con from 0.000278374 +to 0.000278374
Heightened Def Con from 0.000278374 +to 0.000278375
Heightened Def Con from 0.000278375 to 0.000278375
Heightened Def Con from 0.000278375 to 0.000278375
Heightened Def Con from 0.000278375 to 0.000278375
Heightened Def Con from 0.000278375 to 0.000278375
Heightened Def Con from 0.000278375 to 0.000278375
Heightened Def Con from 0.000278375 to 0.000278375
Heightened Def Con from 0.000278375 +to 0.000278375
Heightened Def Con from 0.000278375 to 0.000278375
Heightened Def Con from 0.000278375 to 0.000278378
Heightened Def Con from 0.000278378 to 0.000278378
Heightened Def Con from 0.000278378 to 0.000278381
Heightened Def Con from 0.000278381 to 0.000278381
Heightened Def Con from 0.000278381 +to 0.000278382
Heightened Def Con from 0.000278382 to 0.000278382
Heightened Def Con from 0.000278382 to 0.000278384
Heightened Def Con from 0.000280132 +to 0.000280132
Heightened Def Con from 0.000280132 to 0.000280133
Heightened Def Con from 0.000280133 to 0.000280133
Heightened Def Con from 0.000280133 +to 0.000280133
Heightened Def Con from 0.000280133 to 0.000280133
Heightened Def Con from 0.000280133 to 0.000280133
Heightened Def Con from 0.000280133 +to 0.000280133
Heightened Def Con from 0.000280133 to 0.000280133
Heightened Def Con from 0.000280133 to 0.000280133
Heightened Def Con from 0.000280133 to 0.000280135
Heightened Def Con from 0.000281022 to 0.000281023
Heightened Def Con from 0.000281023 to 0.000281023
Heightened Def Con from 0.000281023 ++to 0.000281023
Heightened Def Con from 0.000281023 to 0.000281024
Heightened Def Con from 0.000281025 to 0.000281025
Heightened Def Con from 0.000281025 to 0.000281025
Heightened Def Con from 0.000281025 +to 0.000281026
Heightened Def Con from 0.000281351 to 0.000281354
Heightened Def Con from 0.00028502 to 0.00028502
Heightened Def Con from 0.000285021 to 0.000285022
Heightened Def Con from 0.000285022 to 0.000285022
Heightened Def Con from 0.000285022 to 0.000285023
Heightened Def Con from 0.000285023 to 0.000285023
Heightened Def Con from 0.000285023 to 0.000285023
Heightened Def Con from 0.000285023 to 0.000285024
Heightened Def Con from 0.000285024 to 0.000285024
Heightened Def Con from 0.000285024 to 0.000285024
Heightened Def Con from 0.000285024 to 0.000285025
Heightened Def Con from 0.000285025 to 0.000285025
Heightened Def Con from 0.000285025 to 0.000285025
Heightened Def Con from 0.000285025 to 0.000285025
Heightened Def Con from 0.000285025 to 0.000285025
Heightened Def Con from 0.000285025 to 0.000285026
Heightened Def Con from 0.000285026 to 0.000285026
Heightened Def Con from 0.000285027 to 0.000285028
Heightened Def Con from 0.000285028 to 0.000285031
Heightened Def Con from 0.00028518 to 0.00028518
Heightened Def Con from 0.000286649 to 0.000286657
Heightened Def Con from 0.000287685 to 0.000287685
Heightened Def Con from 0.000287686 to 0.000287686
Heightened Def Con from 0.000287686 to 0.000287686
Heightened Def Con from 0.000287686 to 0.000287686
Heightened Def Con from 0.000287686 to 0.000287686
Heightened Def Con from 0.000287686 to 0.000287687
Heightened Def Con from 0.000287688 to 0.00028769
Heightened Def Con from 0.000287691 +to 0.000287693
Heightened Def Con from 0.00028799 to 0.000287991
Heightened Def Con from 0.000288018 to 0.000288019
Heightened Def Con from 0.000290075 to 0.000290075
Heightened Def Con from 0.000291698 to 0.000291698
Heightened Def Con from 0.000291698 to 0.000291698
Heightened Def Con from 0.000291699 +to 0.000291699
Heightened Def Con from 0.000291699 to 0.000291699
Heightened Def Con from 0.000291699 to 0.000291699
Heightened Def Con from 0.000291699 to 0.000291699
Heightened Def Con from 0.000291699 to 0.000291699
Heightened Def Con from 0.000291699 ++to 0.000291699
Heightened Def Con from 0.000291699 +to 0.000291699
Heightened Def Con from 0.000291699 +to 0.000291699
Heightened Def Con from 0.000291699 to 0.000291699
Heightened Def Con from 0.000291699 ++to 0.000291699
Heightened Def Con from 0.000291699 +to 0.0002917
Heightened Def Con from 0.0002917 to 0.0002917
Heightened Def Con from 0.0002917 to 0.0002917
Heightened Def Con from 0.0002917 to 0.000291701
Heightened Def Con from 0.000291701 to 0.000291701
Heightened Def Con from 0.000291701 to 0.000291701
Heightened Def Con from 0.000291701 to 0.000291701
Heightened Def Con from 0.000291701 to 0.000291701
Heightened Def Con from 0.000291701 to 0.000291702
Heightened Def Con from 0.000291702 to 0.000291702
Heightened Def Con from 0.000291702 to 0.000291702
Heightened Def Con from 0.000291702 to 0.000291702
Heightened Def Con from 0.000291702 to 0.000291702
Heightened Def Con from 0.000291702 to 0.000291703
Heightened Def Con from 0.000291703 to 0.000291704
Heightened Def Con from 0.000291704 ++to 0.000291705
Heightened Def Con from 0.000291705 to 0.000291705
Heightened Def Con from 0.000291705 to 0.000291706
Heightened Def Con from 0.000291706 to 0.000291707
Heightened Def Con from 0.000291707 to 0.00029171
Heightened Def Con from 0.00029171 to 0.00029171
Heightened Def Con from 0.00029171 to 0.000291713
Heightened Def Con from 0.000294355 ++to 0.000294355
Heightened Def Con from 0.000294355 +++to 0.000294355
Heightened Def Con from 0.000294355 to 0.000294355
Heightened Def Con from 0.000294355 to 0.000294355
Heightened Def Con from 0.000294355 to 0.000294355
Heightened Def Con from 0.000294355 to 0.000294356
Heightened Def Con from 0.000294379 to 0.000294379
Heightened Def Con from 0.000294379 to 0.000294379
Heightened Def Con from 0.000294379 to 0.000294379
Heightened Def Con from 0.000294379 to 0.000294379
Heightened Def Con from 0.000294379 to 0.000294379
Heightened Def Con from 0.00029438 to 0.00029438
Heightened Def Con from 0.00029438 to 0.000294381
Heightened Def Con from 0.000294381 to 0.000294381
Heightened Def Con from 0.000294408 to 0.000294408
Heightened Def Con from 0.000294426 to 0.000294426
Heightened Def Con from 0.000294427 to 0.000294429
Heightened Def Con from 0.000294656 to 0.000294656
Heightened Def Con from 0.000294657 to 0.000294657
Heightened Def Con from 0.000294657 to 0.000294657
Heightened Def Con from 0.000294657 to 0.000294657
Heightened Def Con from 0.000294657 +to 0.000294657
Heightened Def Con from 0.000294657 to 0.000294657
Heightened Def Con from 0.000294657 to 0.000294657
Heightened Def Con from 0.000294657 to 0.000294657
Heightened Def Con from 0.000294657 to 0.000294657
Heightened Def Con from 0.000294657 to 0.000294657
Heightened Def Con from 0.000294657 to 0.000294657
Heightened Def Con from 0.000294657 to 0.000294657
Heightened Def Con from 0.000294657 +to 0.000294657
Heightened Def Con from 0.000294657 to 0.000294657
Heightened Def Con from 0.000294657 to 0.000294657
Heightened Def Con from 0.000294657 to 0.000294657
Heightened Def Con from 0.000294657 to 0.000294657
Heightened Def Con from 0.000294657 to 0.000294657
Heightened Def Con from 0.000294657 to 0.000294657
Heightened Def Con from 0.00029466 to 0.00029466
Heightened Def Con from 0.000294662 to 0.000294662
Heightened Def Con from 0.000294662 to 0.000294662
Heightened Def Con from 0.000294687 to 0.000294687
Heightened Def Con from 0.000294687 to 0.000294687
Heightened Def Con from 0.000294687 to 0.000294687
Heightened Def Con from 0.000294687 to 0.00029469
Heightened Def Con from 0.000294702 to 0.000294702
Heightened Def Con from 0.000296756 to 0.000296756
Heightened Def Con from 0.000296756 to 0.000296756
Heightened Def Con from 0.000296756 to 0.000296757
Heightened Def Con from 0.000296758 to 0.000296758
Heightened Def Con from 0.00029676 to 0.00029676
Heightened Def Con from 0.000299677 ++to 0.000299678
Heightened Def Con from 0.000299809 to 0.000299809
Heightened Def Con from 0.000299809 to 0.000299809
Heightened Def Con from 0.000301018 to 0.000301021
Heightened Def Con from 0.000301022 to 0.000301022
Heightened Def Con from 0.000301318 to 0.000301326
Heightened Def Con from 0.000303425 to 0.000303425
Heightened Def Con from 0.000303425 to 0.000303425
Heightened Def Con from 0.000303425 to 0.000303425
Heightened Def Con from 0.000303425 to 0.000303425
Heightened Def Con from 0.000303428 to 0.000303428
Heightened Def Con from 0.000303429 to 0.000303429
Heightened Def Con from 0.000306344 +to 0.000306347
Heightened Def Con from 0.000306649 to 0.000306657
Heightened Def Con from 0.000306735 to 0.000306738
Heightened Def Con from 0.000307983 to 0.000307983
Heightened Def Con from 0.000308024 to 0.000308024
Heightened Def Con from 0.000308024 to 0.000308025
Heightened Def Con from 0.000310067 to 0.000310067
Heightened Def Con from 0.000310067 to 0.000310067
Heightened Def Con from 0.000310067 to 0.000310067
Heightened Def Con from 0.000310067 to 0.000310067
Heightened Def Con from 0.000310067 to 0.000310067
Heightened Def Con from 0.000310067 to 0.000310067
Heightened Def Con from 0.000310068 to 0.000310068
Heightened Def Con from 0.000310068 to 0.000310068
Heightened Def Con from 0.000310073 to 0.000310073
Heightened Def Con from 0.000313011 to 0.000313011
Heightened Def Con from 0.000313011 +to 0.000313014
Heightened Def Con from 0.000313138 to 0.000313138
Heightened Def Con from 0.00031314 to 0.00031314
Heightened Def Con from 0.000313388 to 0.000313388
Heightened Def Con from 0.000316018 to 0.000316021
Heightened Def Con from 0.000316691 to 0.000316694
Heightened Def Con from 0.000316705 to 0.000316705
Heightened Def Con from 0.000316705 to 0.000316706
Heightened Def Con from 0.000316706 to 0.000316707
Heightened Def Con from 0.000316707 to 0.000316707
Heightened Def Con from 0.000316707 to 0.000316708
Heightened Def Con from 0.00031671 to 0.00031671
Heightened Def Con from 0.000317195 to 0.000317195
Heightened Def Con from 0.000317195 to 0.000317196
Heightened Def Con from 0.000317196 to 0.000317196
Heightened Def Con from 0.000317196 to 0.000317197
Heightened Def Con from 0.000317309 to 0.000317309
Heightened Def Con from 0.000318518 to 0.000318518
Heightened Def Con from 0.00031968 to 0.000319683
Heightened Def Con from 0.000319804 to 0.000319804
Heightened Def Con from 0.000319804 to 0.000319805
Heightened Def Con from 0.000319806 to 0.000319806
Heightened Def Con from 0.000319811 to 0.000319811
Heightened Def Con from 0.000319816 to 0.000319816
Heightened Def Con from 0.000319819 to 0.000319819
Heightened Def Con from 0.00031982 to 0.000319821
Heightened Def Con from 0.000319821 to 0.000319821
Heightened Def Con from 0.000319982 to 0.000319982
Heightened Def Con from 0.000319982 to 0.000319984
Heightened Def Con from 0.000321316 to 0.000321327
Heightened Def Con from 0.00032136 to 0.000321363
Heightened Def Con from 0.000322678 to 0.000322681
Heightened Def Con from 0.000323348 to 0.000323348
Heightened Def Con from 0.000323348 to 0.000323348
Heightened Def Con from 0.000323348 to 0.000323348
Heightened Def Con from 0.000323349 to 0.000323349
Heightened Def Con from 0.000323349 to 0.000323349
Heightened Def Con from 0.00032335 to 0.00032335
Heightened Def Con from 0.000323353 to 0.000323353
Heightened Def Con from 0.000323967 to 0.000323967
Heightened Def Con from 0.000325562 to 0.000325567
Heightened Def Con from 0.000326469 to 0.00032647
Heightened Def Con from 0.000326471 to 0.000326471
Heightened Def Con from 0.000326471 to 0.000326472
Heightened Def Con from 0.000326473 to 0.000326473
Heightened Def Con from 0.000326473 to 0.000326473
Heightened Def Con from 0.000326482 to 0.000326482
Heightened Def Con from 0.000326493 to 0.000326493
Heightened Def Con from 0.000326496 to 0.000326496
Heightened Def Con from 0.000326501 to 0.000326501
Heightened Def Con from 0.000326503 to 0.000326503
Heightened Def Con from 0.000326505 to 0.000326505
Heightened Def Con from 0.000326506 to 0.000326507
Heightened Def Con from 0.000326509 to 0.000326509
Heightened Def Con from 0.000326649 to 0.00032665
Heightened Def Con from 0.000329339 to 0.000329342
Heightened Def Con from 0.000329991 to 0.000329991
Heightened Def Con from 0.000329991 to 0.000329991
Heightened Def Con from 0.000329991 +to 0.000329991
Heightened Def Con from 0.000329991 to 0.000329991
Heightened Def Con from 0.000329991 to 0.000329991
Heightened Def Con from 0.000329991 to 0.000329991
Heightened Def Con from 0.000329991 to 0.000329991
Heightened Def Con from 0.000329991 to 0.000329991
Heightened Def Con from 0.000329991 to 0.000329991
Heightened Def Con from 0.000329992 to 0.000329993
Heightened Def Con from 0.000329993 to 0.000329993
Heightened Def Con from 0.000329994 to 0.000329994
Heightened Def Con from 0.000329995 to 0.000329996
Heightened Def Con from 0.000329998 to 0.000330001
Heightened Def Con from 0.00033053 +to 0.000330532
Heightened Def Con from 0.000331071 +to 0.000331073
Heightened Def Con from 0.000331073 to 0.000331073
Heightened Def Con from 0.000331073 to 0.000331074
Heightened Def Con from 0.000331074 to 0.000331074
Heightened Def Con from 0.000331074 to 0.000331074
Heightened Def Con from 0.000331074 +to 0.000331074
Heightened Def Con from 0.000331074 to 0.000331074
Heightened Def Con from 0.000331074 to 0.000331074
Heightened Def Con from 0.000331074 +to 0.000331074
Heightened Def Con from 0.000331074 to 0.000331074
Heightened Def Con from 0.000331074 +to 0.000331074
Heightened Def Con from 0.000331074 to 0.000331074
Heightened Def Con from 0.000331074 +to 0.000331074
Heightened Def Con from 0.000331074 to 0.000331074
Heightened Def Con from 0.000331075 to 0.000331075
Heightened Def Con from 0.000331075 +to 0.000331077
Heightened Def Con from 0.000331854 to 0.000331854
Heightened Def Con from 0.000331854 to 0.000331854
Heightened Def Con from 0.000331854 to 0.000331854
Heightened Def Con from 0.000331855 to 0.000331855
Heightened Def Con from 0.000332 to 0.000332001
Heightened Def Con from 0.000336001 to 0.000336004
Heightened Def Con from 0.000336633 to 0.000336633
Heightened Def Con from 0.000336634 to 0.000336634
Heightened Def Con from 0.000336636 to 0.000336636
Heightened Def Con from 0.000336636 to 0.000336637
Heightened Def Con from 0.000337288 to 0.000337291
Heightened Def Con from 0.000337902 to 0.000337902
Heightened Def Con from 0.000337902 to 0.000337902
Heightened Def Con from 0.000337902 +to 0.000337902
Heightened Def Con from 0.000337902 to 0.000337902
Heightened Def Con from 0.000337902 to 0.000337902
Heightened Def Con from 0.000337903 to 0.000337905
Heightened Def Con from 0.000338526 to 0.000338526
Heightened Def Con from 0.000338528 to 0.000338528
Heightened Def Con from 0.000339671 to 0.000339679
Heightened Def Con from 0.00033971 to 0.000339713
Heightened Def Con from 0.000339982 to 0.000339991
Heightened Def Con from 0.000341022 to 0.000341028
Heightened Def Con from 0.000343241 to 0.000343244
Heightened Def Con from 0.000343265 to 0.000343266
Heightened Def Con from 0.000343266 to 0.000343266
Heightened Def Con from 0.000343269 to 0.000343269
Heightened Def Con from 0.00034327 to 0.00034327
Heightened Def Con from 0.000343272 to 0.000343275
Heightened Def Con from 0.000344698 to 0.000344698
Heightened Def Con from 0.000344698 to 0.000344698
Heightened Def Con from 0.000344698 to 0.0003447
Heightened Def Con from 0.000345193 to 0.000345193
Heightened Def Con from 0.000346331 to 0.000346331
Heightened Def Con from 0.000346331 to 0.000346331
Heightened Def Con from 0.000346331 to 0.000346331
Heightened Def Con from 0.000346331 to 0.000346332
Heightened Def Con from 0.000346332 to 0.000346332
Heightened Def Con from 0.000346332 to 0.000346332
Heightened Def Con from 0.000346332 to 0.000346332
Heightened Def Con from 0.000346332 to 0.000346332
Heightened Def Con from 0.000346332 to 0.000346332
Heightened Def Con from 0.000346332 to 0.000346332
Heightened Def Con from 0.000346332 to 0.000346332
Heightened Def Con from 0.000346332 to 0.000346332
Heightened Def Con from 0.000346332 to 0.000346332
Heightened Def Con from 0.000346332 +to 0.000346333
Heightened Def Con from 0.000346333 to 0.000346333
Heightened Def Con from 0.000346333 to 0.000346333
Heightened Def Con from 0.000346333 ++++++to 0.000346333
Heightened Def Con from 0.000346333 ++to 0.000346333
Heightened Def Con from 0.000346333 +++to 0.000346333
Heightened Def Con from 0.000346333 ++to 0.000346333
Heightened Def Con from 0.000346333 +++++to 0.000346333
Heightened Def Con from 0.000346333 ++to 0.000346333
Heightened Def Con from 0.000346333 to 0.000346333
Heightened Def Con from 0.000346333 ++++to 0.000346333
Heightened Def Con from 0.000346333 +to 0.000346333
Heightened Def Con from 0.000346333 to 0.000346333
Heightened Def Con from 0.000346333 +++to 0.000346333
Heightened Def Con from 0.000346333 +to 0.000346333
Heightened Def Con from 0.000346333 to 0.000346333
Heightened Def Con from 0.000346333 to 0.000346333
Heightened Def Con from 0.000346333 +to 0.000346333
Heightened Def Con from 0.000346333 to 0.000346333
Heightened Def Con from 0.000346333 ++++++++++++to 0.000346335
Heightened Def Con from 0.000347689 to 0.000347695
Heightened Def Con from 0.000348032 to 0.000348032
Heightened Def Con from 0.000349905 to 0.000349906
Heightened Def Con from 0.000349906 to 0.000349906
Heightened Def Con from 0.000349906 to 0.000349906
Heightened Def Con from 0.000349906 +to 0.000349906
Heightened Def Con from 0.000349906 to 0.000349906
Heightened Def Con from 0.000349906 to 0.000349906
Heightened Def Con from 0.000349907 to 0.000349908
Heightened Def Con from 0.000349909 to 0.000349909
Heightened Def Con from 0.000349909 to 0.000349909
Heightened Def Con from 0.00034991 to 0.00034991
Heightened Def Con from 0.00034991 to 0.00034991
Heightened Def Con from 0.000349911 to 0.000349912
Heightened Def Con from 0.000350478 to 0.000350481
Heightened Def Con from 0.000351867 to 0.000351867
Heightened Def Con from 0.000351867 to 0.000351867
Heightened Def Con from 0.000351867 to 0.000351867
Heightened Def Con from 0.000351867 to 0.000351868
Heightened Def Con from 0.000351868 to 0.000351868
Heightened Def Con from 0.000351869 to 0.00035187
Heightened Def Con from 0.00035187 to 0.00035187
Heightened Def Con from 0.000351875 to 0.000351875
Heightened Def Con from 0.000352249 to 0.000352254
Heightened Def Con from 0.000352948 to 0.000352948
Heightened Def Con from 0.000352948 to 0.000352948
Heightened Def Con from 0.000352948 to 0.000352948
Heightened Def Con from 0.000352948 to 0.000352948
Heightened Def Con from 0.000352948 to 0.000352948
Heightened Def Con from 0.000352948 to 0.000352948
Heightened Def Con from 0.000352948 to 0.000352948
Heightened Def Con from 0.000352948 to 0.000352948
Heightened Def Con from 0.000352948 to 0.000352948
Heightened Def Con from 0.000352948 to 0.000352948
Heightened Def Con from 0.000352948 to 0.000352948
Heightened Def Con from 0.000352948 to 0.000352948
Heightened Def Con from 0.000352948 to 0.000352948
Heightened Def Con from 0.000352948 to 0.000352948
Heightened Def Con from 0.000352948 to 0.000352948
Heightened Def Con from 0.000352948 to 0.000352948
Heightened Def Con from 0.000352948 to 0.000352948
Heightened Def Con from 0.000352948 to 0.000352948
Heightened Def Con from 0.000352948 to 0.000352948
Heightened Def Con from 0.000352948 to 0.000352948
Heightened Def Con from 0.000352948 to 0.000352948
Heightened Def Con from 0.000352948 ++to 0.000352948
Heightened Def Con from 0.000352948 to 0.000352948
Heightened Def Con from 0.000352948 to 0.000352948
Heightened Def Con from 0.000352948 to 0.000352948
Heightened Def Con from 0.000352948 to 0.000352948
Heightened Def Con from 0.000352948 +to 0.000352948
Heightened Def Con from 0.000352948 +to 0.000352948
Heightened Def Con from 0.000352948 to 0.000352948
Heightened Def Con from 0.000352948 to 0.000352948
Heightened Def Con from 0.000352948 +to 0.000352948
Heightened Def Con from 0.000352948 ++to 0.000352948
Heightened Def Con from 0.000352948 +to 0.000352948
Heightened Def Con from 0.000352948 +to 0.000352948
Heightened Def Con from 0.000352948 to 0.000352948
Heightened Def Con from 0.000352948 ++to 0.000352948
Heightened Def Con from 0.000352948 to 0.000352948
Heightened Def Con from 0.000352948 to 0.000352948
Heightened Def Con from 0.000352948 ++++to 0.000352948
Heightened Def Con from 0.000352948 +to 0.000352948
Heightened Def Con from 0.000352948 +to 0.000352948
Heightened Def Con from 0.000352948 +to 0.000352948
Heightened Def Con from 0.000352948 +++to 0.000352948
Heightened Def Con from 0.000352948 ++++to 0.000352948
Heightened Def Con from 0.000352948 +++to 0.000352948
Heightened Def Con from 0.000352948 to 0.000352948
Heightened Def Con from 0.000352948 to 0.000352948
Heightened Def Con from 0.000352948 +to 0.000352948
Heightened Def Con from 0.000352948 to 0.000352948
Heightened Def Con from 0.000352948 +++to 0.000352948
Heightened Def Con from 0.000352948 to 0.000352948
Heightened Def Con from 0.000352948 ++to 0.000352948
Heightened Def Con from 0.000352948 to 0.000352948
Heightened Def Con from 0.000352948 +to 0.000352948
Heightened Def Con from 0.000352948 +++++++to 0.000352948
Heightened Def Con from 0.000352948 +++++to 0.000352948
Heightened Def Con from 0.000352948 +to 0.000352948
Heightened Def Con from 0.000352948 to 0.000352948
Heightened Def Con from 0.000352948 ++++to 0.000352948
Heightened Def Con from 0.000352948 ++to 0.000352948
Heightened Def Con from 0.000352948 to 0.000352948
Heightened Def Con from 0.000352948 ++++to 0.000352948
Heightened Def Con from 0.000352948 ++++++++++++++++++++++to 0.000352948
Heightened Def Con from 0.000352948 +++to 0.000352948
Heightened Def Con from 0.000352948 ++to 0.000352948
Heightened Def Con from 0.000352948 +++++++++++++to 0.000352948
Heightened Def Con from 0.000352948 ++++++++++++++to 0.000352948
Heightened Def Con from 0.000352948 +++++++++++++++++++++to 0.000352948
Heightened Def Con from 0.000352948 +++++to 0.000352948
Heightened Def Con from 0.000352948 +++++++++to 0.000352948
Heightened Def Con from 0.000352948 ++++++++++++++++++to 0.000352948
Heightened Def Con from 0.000352948 ++to 0.000352948
Heightened Def Con from 0.000352948 +to 0.000352948
Heightened Def Con from 0.000352948 ++++++++++++to 0.000352948
Heightened Def Con from 0.000352948 ++++++++++++to 0.000352948
Heightened Def Con from 0.000352948 +to 0.000352948
Heightened Def Con from 0.000352948 ++++to 0.000352948
Heightened Def Con from 0.000352948 to 0.000352948
Heightened Def Con from 0.000352948 +++++++to 0.00035295
Heightened Def Con from 0.00035295 ++to 0.00035295
Heightened Def Con from 0.00035295 to 0.00035295
Heightened Def Con from 0.00035295 +to 0.00035295
Heightened Def Con from 0.00035295 to 0.00035295
Heightened Def Con from 0.00035295 to 0.00035295
Heightened Def Con from 0.00035295 +++to 0.00035295
Heightened Def Con from 0.00035295 +to 0.00035295
Heightened Def Con from 0.00035295 to 0.00035295
Heightened Def Con from 0.00035295 +to 0.00035295
Heightened Def Con from 0.00035295 +++to 0.00035295
Heightened Def Con from 0.00035295 +to 0.00035295
Heightened Def Con from 0.00035295 +to 0.00035295
Heightened Def Con from 0.00035295 to 0.00035295
Heightened Def Con from 0.00035295 to 0.000352951
Heightened Def Con from 0.000352951 to 0.000352951
Heightened Def Con from 0.000352951 to 0.000352951
Heightened Def Con from 0.000352951 to 0.000352951
Heightened Def Con from 0.000352951 to 0.000352951
Heightened Def Con from 0.000352951 to 0.000352951
Heightened Def Con from 0.000352951 +to 0.000352952
Heightened Def Con from 0.000352952 to 0.000352952
Heightened Def Con from 0.000352952 +to 0.000352952
Heightened Def Con from 0.000352952 to 0.000352952
Heightened Def Con from 0.000352952 ++to 0.000352952
Heightened Def Con from 0.000352952 to 0.000352952
Heightened Def Con from 0.000352952 +++to 0.000352952
Heightened Def Con from 0.000352952 ++to 0.000352952
Heightened Def Con from 0.000352952 to 0.000352952
Heightened Def Con from 0.000352952 +++to 0.000352952
Heightened Def Con from 0.000352952 to 0.000352952
Heightened Def Con from 0.000352952 to 0.000352952
Heightened Def Con from 0.000352952 to 0.000352952
Heightened Def Con from 0.000352952 to 0.000352952
Heightened Def Con from 0.000352952 to 0.000352952
Heightened Def Con from 0.000352952 to 0.000352952
Heightened Def Con from 0.000352952 to 0.000352952
Heightened Def Con from 0.000352952 +to 0.000352952
Heightened Def Con from 0.000352952 to 0.000352952
Heightened Def Con from 0.000352952 +to 0.000352954
Heightened Def Con from 0.000352954 to 0.000352954
Heightened Def Con from 0.000352954 to 0.000352954
Heightened Def Con from 0.000352954 to 0.000352954
Heightened Def Con from 0.000352954 to 0.000352955
Heightened Def Con from 0.000352955 to 0.000352955
Heightened Def Con from 0.000352955 to 0.000352955
Heightened Def Con from 0.000352955 to 0.000352955
Heightened Def Con from 0.000352955 +to 0.000352955
Heightened Def Con from 0.000352955 to 0.000352955
Heightened Def Con from 0.000352955 to 0.000352955
Heightened Def Con from 0.000352955 to 0.000352955
Heightened Def Con from 0.000352955 to 0.000352955
Heightened Def Con from 0.000352955 to 0.000352955
Heightened Def Con from 0.000352955 +to 0.000352955
Heightened Def Con from 0.000352955 to 0.000352955
Heightened Def Con from 0.000352955 to 0.000352955
Heightened Def Con from 0.000352955 to 0.000352955
Heightened Def Con from 0.000352955 to 0.000352955
Heightened Def Con from 0.000352955 to 0.000352955
Heightened Def Con from 0.000352955 to 0.000352955
Heightened Def Con from 0.000352955 to 0.000352955
Heightened Def Con from 0.000352955 to 0.000352955
Heightened Def Con from 0.000352955 to 0.000352955
Heightened Def Con from 0.000352955 to 0.000352955
Heightened Def Con from 0.000352955 to 0.000352955
Heightened Def Con from 0.000352955 to 0.000352955
Heightened Def Con from 0.000352955 +to 0.000352955
Heightened Def Con from 0.000352955 to 0.000352955
Heightened Def Con from 0.000352955 to 0.000352955
Heightened Def Con from 0.000352955 to 0.000352955
Heightened Def Con from 0.000352955 to 0.000352955
Heightened Def Con from 0.000352955 to 0.000352955
Heightened Def Con from 0.000352955 to 0.000352955
Heightened Def Con from 0.000352955 to 0.000352955
Heightened Def Con from 0.000352955 to 0.000352955
Heightened Def Con from 0.000352955 to 0.000352955
Heightened Def Con from 0.000352955 to 0.000352955
Heightened Def Con from 0.000352955 to 0.000352955
Heightened Def Con from 0.000352955 to 0.000352955
Heightened Def Con from 0.000352955 to 0.000352955
Heightened Def Con from 0.000352955 to 0.000352955
Heightened Def Con from 0.000352955 to 0.000352955
Heightened Def Con from 0.000352955 to 0.000352955
Heightened Def Con from 0.000352955 +to 0.000352955
Heightened Def Con from 0.000352955 to 0.000352955
Heightened Def Con from 0.000352955 to 0.000352955
Heightened Def Con from 0.000352955 to 0.000352955
Heightened Def Con from 0.000352955 to 0.000352955
Heightened Def Con from 0.000352955 to 0.000352955
Heightened Def Con from 0.000352955 to 0.000352955
Heightened Def Con from 0.000352955 +to 0.000352955
Heightened Def Con from 0.000352955 +to 0.000352955
Heightened Def Con from 0.000352955 to 0.000352955
Heightened Def Con from 0.000352955 to 0.000352955
Heightened Def Con from 0.000352955 to 0.000352955
Heightened Def Con from 0.000352955 to 0.000352955
Heightened Def Con from 0.000352955 to 0.000352955
Heightened Def Con from 0.000352955 to 0.000352955
Heightened Def Con from 0.000352955 to 0.000352955
Heightened Def Con from 0.000352955 to 0.000352955
Heightened Def Con from 0.000352955 to 0.000352955
Heightened Def Con from 0.000352955 to 0.000352955
Heightened Def Con from 0.000352955 to 0.000352955
Heightened Def Con from 0.000352955 to 0.000352956
Heightened Def Con from 0.000352956 to 0.000352956
Heightened Def Con from 0.000352956 to 0.000352956
Heightened Def Con from 0.000352956 to 0.000352956
Heightened Def Con from 0.000352956 to 0.000352956
Heightened Def Con from 0.000352956 to 0.000352956
Heightened Def Con from 0.000352956 to 0.000352956
Heightened Def Con from 0.000352956 to 0.000352956
Heightened Def Con from 0.000352956 to 0.000352956
Heightened Def Con from 0.000352957 to 0.000352957
Heightened Def Con from 0.000352957 to 0.000352957
Heightened Def Con from 0.000352957 to 0.000352957
Heightened Def Con from 0.000352957 to 0.000352957
Heightened Def Con from 0.000352957 to 0.000352958
Heightened Def Con from 0.000352958 to 0.000352958
Heightened Def Con from 0.000352958 to 0.000352958
Heightened Def Con from 0.000352958 to 0.000352959
Heightened Def Con from 0.000352959 to 0.000352959
Heightened Def Con from 0.00035296 to 0.00035296
Heightened Def Con from 0.000353316 to 0.000353325
Heightened Def Con from 0.000353407 to 0.000353411
Heightened Def Con from 0.000354351 to 0.000354361
Heightened Def Con from 0.000356547 to 0.000356547
Heightened Def Con from 0.000356548 +to 0.000356548
Heightened Def Con from 0.000356549 to 0.00035655
Heightened Def Con from 0.00035655 to 0.000356551
Heightened Def Con from 0.000356551 to 0.000356551
Heightened Def Con from 0.000356551 to 0.000356551
Heightened Def Con from 0.000356552 to 0.000356552
Heightened Def Con from 0.000356552 to 0.000356552
Heightened Def Con from 0.000356553 to 0.000356553
Heightened Def Con from 0.000356554 to 0.000356554
Heightened Def Con from 0.000356554 to 0.000356554
Heightened Def Con from 0.000356554 to 0.000356555
Heightened Def Con from 0.000359561 to 0.000359561
Heightened Def Con from 0.000359561 to 0.000359561
Heightened Def Con from 0.000359562 to 0.000359562
Heightened Def Con from 0.000359562 to 0.000359562
Heightened Def Con from 0.000359562 to 0.000359562
Heightened Def Con from 0.000359562 to 0.000359562
Heightened Def Con from 0.000359562 to 0.000359562
Heightened Def Con from 0.000359562 to 0.000359562
Heightened Def Con from 0.000359562 to 0.000359562
Heightened Def Con from 0.000359562 to 0.000359562
Heightened Def Con from 0.000359562 to 0.000359562
Heightened Def Con from 0.000359562 to 0.000359562
Heightened Def Con from 0.000359562 to 0.000359562
Heightened Def Con from 0.000359562 to 0.000359562
Heightened Def Con from 0.000359562 to 0.000359562
Heightened Def Con from 0.000359562 to 0.000359562
Heightened Def Con from 0.000359562 +to 0.000359562
Heightened Def Con from 0.000359562 to 0.000359562
Heightened Def Con from 0.000359562 to 0.000359562
Heightened Def Con from 0.000359562 to 0.000359562
Heightened Def Con from 0.000359562 to 0.000359562
Heightened Def Con from 0.000359562 ++++++to 0.000359562
Heightened Def Con from 0.000359562 to 0.000359562
Heightened Def Con from 0.000359562 to 0.000359562
Heightened Def Con from 0.000359562 +to 0.000359562
Heightened Def Con from 0.000359562 to 0.000359562
Heightened Def Con from 0.000359562 to 0.000359562
Heightened Def Con from 0.000359562 to 0.000359562
Heightened Def Con from 0.000359562 to 0.000359562
Heightened Def Con from 0.000359562 +to 0.000359562
Heightened Def Con from 0.000359562 +++to 0.000359562
Heightened Def Con from 0.000359562 +to 0.000359562
Heightened Def Con from 0.000359562 +++to 0.000359562
Heightened Def Con from 0.000359562 +to 0.000359562
Heightened Def Con from 0.000359562 to 0.000359562
Heightened Def Con from 0.000359562 to 0.000359562
Heightened Def Con from 0.000359562 ++to 0.000359562
Heightened Def Con from 0.000359562 to 0.000359562
Heightened Def Con from 0.000359562 +to 0.000359562
Heightened Def Con from 0.000359562 +to 0.000359562
Heightened Def Con from 0.000359562 +to 0.000359562
Heightened Def Con from 0.000359562 to 0.000359562
Heightened Def Con from 0.000359562 +++to 0.000359562
Heightened Def Con from 0.000359562 to 0.000359562
Heightened Def Con from 0.000359562 +to 0.000359562
Heightened Def Con from 0.000359562 to 0.000359562
Heightened Def Con from 0.000359562 to 0.000359562
Heightened Def Con from 0.000359562 to 0.000359562
Heightened Def Con from 0.000359562 to 0.000359562
Heightened Def Con from 0.000359562 +to 0.000359562
Heightened Def Con from 0.000359562 ++++to 0.000359562
Heightened Def Con from 0.000359562 +to 0.000359562
Heightened Def Con from 0.000359562 to 0.000359562
Heightened Def Con from 0.000359562 to 0.000359562
Heightened Def Con from 0.000359562 to 0.000359562
Heightened Def Con from 0.000359562 +to 0.000359562
Heightened Def Con from 0.000359562 to 0.000359562
Heightened Def Con from 0.000359562 to 0.000359562
Heightened Def Con from 0.000359562 to 0.000359562
Heightened Def Con from 0.000359562 +to 0.000359562
Heightened Def Con from 0.000359562 to 0.000359562
Heightened Def Con from 0.000359562 +to 0.000359562
Heightened Def Con from 0.000359562 to 0.000359562
Heightened Def Con from 0.000359562 to 0.000359562
Heightened Def Con from 0.000359562 to 0.000359562
Heightened Def Con from 0.000359562 to 0.000359562
Heightened Def Con from 0.000359562 +to 0.000359562
Heightened Def Con from 0.000359562 to 0.000359562
Heightened Def Con from 0.000359562 +to 0.000359562
Heightened Def Con from 0.000359562 to 0.000359562
Heightened Def Con from 0.000359562 ++++to 0.000359562
Heightened Def Con from 0.000359562 +to 0.000359562
Heightened Def Con from 0.000359562 to 0.000359562
Heightened Def Con from 0.000359562 ++to 0.000359562
Heightened Def Con from 0.000359562 ++to 0.000359562
Heightened Def Con from 0.000359562 to 0.000359562
Heightened Def Con from 0.000359562 ++++to 0.000359562
Heightened Def Con from 0.000359562 +to 0.000359562
Heightened Def Con from 0.000359562 +to 0.000359562
Heightened Def Con from 0.000359562 +to 0.000359562
Heightened Def Con from 0.000359562 +++++++to 0.000359562
Heightened Def Con from 0.000359562 ++++++to 0.000359562
Heightened Def Con from 0.000359562 +++++to 0.000359562
Heightened Def Con from 0.000359562 to 0.000359562
Heightened Def Con from 0.000359562 ++to 0.000359562
Heightened Def Con from 0.000359562 +++to 0.000359562
Heightened Def Con from 0.000359562 +to 0.000359562
Heightened Def Con from 0.000359562 ++to 0.000359562
Heightened Def Con from 0.000359562 +to 0.000359562
Heightened Def Con from 0.000359562 +++++++++++++++++++++++++++to 0.000359562
Heightened Def Con from 0.000359562 +++++to 0.000359563
Heightened Def Con from 0.000359563 to 0.000359563
Heightened Def Con from 0.000359563 to 0.000359563
Heightened Def Con from 0.000359563 +to 0.000359563
Heightened Def Con from 0.000359563 to 0.000359563
Heightened Def Con from 0.000359563 ++to 0.000359563
Heightened Def Con from 0.000359563 +to 0.000359563
Heightened Def Con from 0.000359563 to 0.000359563
Heightened Def Con from 0.000359563 to 0.000359563
Heightened Def Con from 0.000359563 to 0.000359563
Heightened Def Con from 0.000359563 +++to 0.000359563
Heightened Def Con from 0.000359563 ++to 0.000359563
Heightened Def Con from 0.000359563 +to 0.000359563
Heightened Def Con from 0.000359563 to 0.000359563
Heightened Def Con from 0.000359563 ++to 0.000359563
Heightened Def Con from 0.000359563 +to 0.000359563
Heightened Def Con from 0.000359563 +++to 0.000359563
Heightened Def Con from 0.000359563 ++++to 0.000359563
Heightened Def Con from 0.000359563 +to 0.000359563
Heightened Def Con from 0.000359563 +to 0.000359563
Heightened Def Con from 0.000359563 ++++to 0.000359563
Heightened Def Con from 0.000359563 ++to 0.000359563
Heightened Def Con from 0.000359563 ++++to 0.000359563
Heightened Def Con from 0.000359563 ++to 0.000359563
Heightened Def Con from 0.000359563 +to 0.000359563
Heightened Def Con from 0.000359563 ++to 0.000359563
Heightened Def Con from 0.000359563 +to 0.000359563
Heightened Def Con from 0.000359563 ++to 0.000359563
Heightened Def Con from 0.000359563 to 0.000359563
Heightened Def Con from 0.000359563 +to 0.000359563
Heightened Def Con from 0.000359563 +to 0.000359563
Heightened Def Con from 0.000359563 ++++++to 0.000359563
Heightened Def Con from 0.000359563 +to 0.000359563
Heightened Def Con from 0.000359563 +to 0.000359563
Heightened Def Con from 0.000359563 +++++to 0.000359563
Heightened Def Con from 0.000359563 ++++++++to 0.000359563
Heightened Def Con from 0.000359563 to 0.000359563
Heightened Def Con from 0.000359563 ++++++++to 0.000359563
Heightened Def Con from 0.000359563 to 0.000359563
Heightened Def Con from 0.000359563 ++++++to 0.000359563
Heightened Def Con from 0.000359563 +++++++to 0.000359563
Heightened Def Con from 0.000359563 to 0.000359563
Heightened Def Con from 0.000359563 ++++++to 0.000359563
Heightened Def Con from 0.000359563 +to 0.000359563
Heightened Def Con from 0.000359563 ++to 0.000359563
Heightened Def Con from 0.000359563 ++++to 0.000359564
Heightened Def Con from 0.000359564 +to 0.000359564
Heightened Def Con from 0.000359564 +to 0.000359564
Heightened Def Con from 0.000359564 +++++to 0.000359565
Heightened Def Con from 0.000359565 +++to 0.000359565
Heightened Def Con from 0.000359565 to 0.000359566
Heightened Def Con from 0.000359566 ++to 0.000359566
Heightened Def Con from 0.000359566 to 0.000359567
Heightened Def Con from 0.000359567 +to 0.000359567
Heightened Def Con from 0.000359567 to 0.000359567
Heightened Def Con from 0.000359567 to 0.000359567
Heightened Def Con from 0.000359567 ++to 0.000359567
Heightened Def Con from 0.000359567 to 0.000359567
Heightened Def Con from 0.000359567 to 0.000359567
Heightened Def Con from 0.000359567 to 0.000359567
Heightened Def Con from 0.000359567 to 0.000359567
Heightened Def Con from 0.000359567 to 0.000359567
Heightened Def Con from 0.000359567 to 0.000359567
Heightened Def Con from 0.000359567 to 0.000359567
Heightened Def Con from 0.000359567 to 0.000359567
Heightened Def Con from 0.000359567 ++to 0.000359567
Heightened Def Con from 0.000359567 to 0.000359567
Heightened Def Con from 0.000359567 to 0.000359567
Heightened Def Con from 0.000359567 +to 0.000359567
Heightened Def Con from 0.000359567 to 0.000359567
Heightened Def Con from 0.000359567 to 0.000359567
Heightened Def Con from 0.000359567 ++to 0.000359567
Heightened Def Con from 0.000359567 +to 0.000359567
Heightened Def Con from 0.000359567 to 0.000359567
Heightened Def Con from 0.000359567 to 0.000359568
Heightened Def Con from 0.000359568 to 0.000359568
Heightened Def Con from 0.000359568 to 0.000359568
Heightened Def Con from 0.000359568 to 0.000359568
Heightened Def Con from 0.000359568 to 0.000359568
Heightened Def Con from 0.000359568 to 0.000359569
Heightened Def Con from 0.000359569 to 0.000359569
Heightened Def Con from 0.000359569 to 0.000359569
Heightened Def Con from 0.000359569 to 0.000359569
Heightened Def Con from 0.000359569 to 0.000359569
Heightened Def Con from 0.000359569 to 0.00035957
Heightened Def Con from 0.00035957 to 0.00035957
Heightened Def Con from 0.00035957 to 0.00035957
Heightened Def Con from 0.00035957 to 0.00035957
Heightened Def Con from 0.00035957 to 0.000359571
Heightened Def Con from 0.000359571 to 0.000359571
Heightened Def Con from 0.000359571 to 0.000359571
Heightened Def Con from 0.000359571 to 0.000359571
Heightened Def Con from 0.000359571 to 0.000359571
Heightened Def Con from 0.000359571 to 0.000359571
Heightened Def Con from 0.000359571 to 0.000359571
Heightened Def Con from 0.000359571 to 0.000359571
Heightened Def Con from 0.000359571 to 0.000359571
Heightened Def Con from 0.000359571 to 0.000359571
Heightened Def Con from 0.000359571 to 0.000359571
Heightened Def Con from 0.000359571 to 0.000359572
Heightened Def Con from 0.000359572 to 0.000359572
Heightened Def Con from 0.000359572 to 0.000359572
Heightened Def Con from 0.000359572 to 0.000359572
Heightened Def Con from 0.000359572 to 0.000359572
Heightened Def Con from 0.000359572 to 0.000359572
Heightened Def Con from 0.000359572 to 0.000359572
Heightened Def Con from 0.000359572 to 0.000359572
Heightened Def Con from 0.000359573 to 0.000359573
Heightened Def Con from 0.000359573 to 0.000359573
Heightened Def Con from 0.000359573 to 0.000359574
Heightened Def Con from 0.000359575 to 0.000359575
Heightened Def Con from 0.000359983 to 0.000359992
Heightened Def Con from 0.000361018 to 0.000361023
Heightened Def Con from 0.000361023 to 0.000361028
Heightened Def Con from 0.000362656 to 0.000362656
Heightened Def Con from 0.000363187 to 0.000363187
Heightened Def Con from 0.000363188 to 0.000363188
Heightened Def Con from 0.000363188 +to 0.000363188
Heightened Def Con from 0.000363188 to 0.000363188
Heightened Def Con from 0.000363188 to 0.000363189
Heightened Def Con from 0.00036319 to 0.00036319
Heightened Def Con from 0.00036319 to 0.00036319
Heightened Def Con from 0.00036319 to 0.00036319
Heightened Def Con from 0.000363191 to 0.000363191
Heightened Def Con from 0.000363191 to 0.000363191
Heightened Def Con from 0.000363192 to 0.000363192
Heightened Def Con from 0.000363192 to 0.000363192
Heightened Def Con from 0.000363194 to 0.000363194
Heightened Def Con from 0.000363195 to 0.000363195
Heightened Def Con from 0.000363195 to 0.000363195
Heightened Def Con from 0.000363798 to 0.0003638
Heightened Def Con from 0.000366174 to 0.000366174
Heightened Def Con from 0.000366175 to 0.000366175
Heightened Def Con from 0.000366175 to 0.000366175
Heightened Def Con from 0.000366175 to 0.000366175
Heightened Def Con from 0.000366175 to 0.000366175
Heightened Def Con from 0.000366175 to 0.000366175
Heightened Def Con from 0.000366175 +to 0.000366175
Heightened Def Con from 0.000366175 to 0.000366175
Heightened Def Con from 0.000366175 to 0.000366175
Heightened Def Con from 0.000366175 to 0.000366175
Heightened Def Con from 0.000366175 to 0.000366175
Heightened Def Con from 0.000366175 to 0.000366175
Heightened Def Con from 0.000366175 to 0.000366175
Heightened Def Con from 0.000366175 to 0.000366175
Heightened Def Con from 0.000366175 to 0.000366175
Heightened Def Con from 0.000366175 to 0.000366175
Heightened Def Con from 0.000366175 +to 0.000366175
Heightened Def Con from 0.000366175 to 0.000366175
Heightened Def Con from 0.000366175 to 0.000366175
Heightened Def Con from 0.000366175 to 0.000366176
Heightened Def Con from 0.000366176 +++to 0.000366176
Heightened Def Con from 0.000366176 ++++to 0.000366176
Heightened Def Con from 0.000366176 +to 0.000366176
Heightened Def Con from 0.000366176 ++to 0.000366176
Heightened Def Con from 0.000366176 ++to 0.000366176
Heightened Def Con from 0.000366176 +to 0.000366176
Heightened Def Con from 0.000366176 to 0.000366176
Heightened Def Con from 0.000366176 ++++++++to 0.000366176
Heightened Def Con from 0.000366176 +to 0.000366176
Heightened Def Con from 0.000366176 +++++to 0.000366176
Heightened Def Con from 0.000366176 +++to 0.000366176
Heightened Def Con from 0.000366176 ++++++to 0.000366176
Heightened Def Con from 0.000366176 to 0.000366176
Heightened Def Con from 0.000366176 +to 0.000366176
Heightened Def Con from 0.000366176 ++to 0.000366176
Heightened Def Con from 0.000366176 to 0.000366176
Heightened Def Con from 0.000366176 ++to 0.000366177
Heightened Def Con from 0.000366177 +to 0.000366177
Heightened Def Con from 0.000366177 to 0.000366178
Heightened Def Con from 0.000366178 ++to 0.000366178
Heightened Def Con from 0.000366178 +to 0.000366178
Heightened Def Con from 0.000366178 +to 0.000366178
Heightened Def Con from 0.000366178 +to 0.000366178
Heightened Def Con from 0.000366178 to 0.000366178
Heightened Def Con from 0.000366178 to 0.000366178
Heightened Def Con from 0.000366178 ++to 0.000366178
Heightened Def Con from 0.000366178 to 0.000366178
Heightened Def Con from 0.000366178 ++to 0.000366178
Heightened Def Con from 0.000366178 +to 0.000366178
Heightened Def Con from 0.000366178 to 0.000366178
Heightened Def Con from 0.000366178 to 0.000366178
Heightened Def Con from 0.000366178 to 0.000366178
Heightened Def Con from 0.000366178 to 0.000366178
Heightened Def Con from 0.000366178 ++to 0.000366178
Heightened Def Con from 0.000366178 to 0.000366178
Heightened Def Con from 0.000366178 +to 0.000366178
Heightened Def Con from 0.000366178 to 0.000366178
Heightened Def Con from 0.000366178 to 0.000366178
Heightened Def Con from 0.000366178 to 0.000366178
Heightened Def Con from 0.000366178 +to 0.000366178
Heightened Def Con from 0.000366178 ++to 0.000366178
Heightened Def Con from 0.000366178 to 0.000366178
Heightened Def Con from 0.000366178 to 0.000366178
Heightened Def Con from 0.000366178 to 0.000366178
Heightened Def Con from 0.000366178 to 0.000366178
Heightened Def Con from 0.000366178 to 0.000366178
Heightened Def Con from 0.000366178 to 0.000366178
Heightened Def Con from 0.000366178 to 0.000366178
Heightened Def Con from 0.000366178 to 0.000366178
Heightened Def Con from 0.000366178 to 0.000366178
Heightened Def Con from 0.000366178 +++to 0.000366178
Heightened Def Con from 0.000366178 to 0.000366178
Heightened Def Con from 0.000366178 +to 0.000366178
Heightened Def Con from 0.000366178 +to 0.000366178
Heightened Def Con from 0.000366178 to 0.000366178
Heightened Def Con from 0.000366178 ++++to 0.000366178
Heightened Def Con from 0.000366178 +to 0.000366178
Heightened Def Con from 0.000366178 to 0.000366178
Heightened Def Con from 0.000366178 +to 0.000366178
Heightened Def Con from 0.000366178 to 0.000366178
Heightened Def Con from 0.000366178 +to 0.000366178
Heightened Def Con from 0.000366178 +to 0.000366178
Heightened Def Con from 0.000366178 to 0.000366178
Heightened Def Con from 0.000366178 to 0.000366178
Heightened Def Con from 0.000366178 +to 0.000366178
Heightened Def Con from 0.000366178 to 0.000366178
Heightened Def Con from 0.000366178 +to 0.000366178
Heightened Def Con from 0.000366178 +to 0.000366178
Heightened Def Con from 0.000366178 +to 0.000366178
Heightened Def Con from 0.000366178 ++to 0.000366178
Heightened Def Con from 0.000366178 to 0.000366178
Heightened Def Con from 0.000366178 ++to 0.000366178
Heightened Def Con from 0.000366178 to 0.000366178
Heightened Def Con from 0.000366178 +to 0.000366178
Heightened Def Con from 0.000366178 to 0.000366178
Heightened Def Con from 0.000366178 +to 0.000366178
Heightened Def Con from 0.000366178 to 0.000366178
Heightened Def Con from 0.000366178 +to 0.000366178
Heightened Def Con from 0.000366178 +++to 0.000366178
Heightened Def Con from 0.000366178 +to 0.000366178
Heightened Def Con from 0.000366178 to 0.000366178
Heightened Def Con from 0.000366178 +to 0.000366178
Heightened Def Con from 0.000366178 +++to 0.000366178
Heightened Def Con from 0.000366178 to 0.000366178
Heightened Def Con from 0.000366178 to 0.000366178
Heightened Def Con from 0.000366178 to 0.000366178
Heightened Def Con from 0.000366178 ++to 0.000366178
Heightened Def Con from 0.000366178 to 0.000366178
Heightened Def Con from 0.000366178 to 0.000366178
Heightened Def Con from 0.000366178 to 0.000366178
Heightened Def Con from 0.000366178 +++to 0.000366178
Heightened Def Con from 0.000366178 +to 0.000366179
Heightened Def Con from 0.000366179 to 0.000366179
Heightened Def Con from 0.000366179 to 0.000366179
Heightened Def Con from 0.000366179 ++to 0.000366179
Heightened Def Con from 0.000366179 to 0.000366179
Heightened Def Con from 0.000366179 to 0.000366179
Heightened Def Con from 0.000366179 ++to 0.000366179
Heightened Def Con from 0.000366179 to 0.000366179
Heightened Def Con from 0.000366179 +to 0.000366179
Heightened Def Con from 0.000366179 ++to 0.000366179
Heightened Def Con from 0.000366179 to 0.000366179
Heightened Def Con from 0.000366179 +to 0.000366179
Heightened Def Con from 0.000366179 +to 0.000366179
Heightened Def Con from 0.000366179 ++to 0.000366179
Heightened Def Con from 0.000366179 to 0.000366179
Heightened Def Con from 0.000366179 to 0.000366179
Heightened Def Con from 0.000366179 +to 0.000366179
Heightened Def Con from 0.000366179 to 0.00036618
Heightened Def Con from 0.00036618 to 0.00036618
Heightened Def Con from 0.00036618 to 0.00036618
Heightened Def Con from 0.00036618 to 0.00036618
Heightened Def Con from 0.00036618 ++to 0.00036618
Heightened Def Con from 0.00036618 +to 0.00036618
Heightened Def Con from 0.00036618 to 0.00036618
Heightened Def Con from 0.00036618 to 0.000366181
Heightened Def Con from 0.000366181 to 0.000366181
Heightened Def Con from 0.000366181 to 0.000366181
Heightened Def Con from 0.000366181 to 0.000366181
Heightened Def Con from 0.000366181 +to 0.000366181
Heightened Def Con from 0.000366181 +to 0.000366181
Heightened Def Con from 0.000366181 to 0.000366181
Heightened Def Con from 0.000366181 to 0.000366182
Heightened Def Con from 0.000366182 to 0.000366182
Heightened Def Con from 0.000366182 to 0.000366182
Heightened Def Con from 0.000366182 to 0.000366182
Heightened Def Con from 0.000366182 to 0.000366182
Heightened Def Con from 0.000366182 to 0.000366184
Heightened Def Con from 0.000366184 to 0.000366184
Heightened Def Con from 0.000366184 to 0.000366184
Heightened Def Con from 0.000366184 to 0.000366184
Heightened Def Con from 0.000366185 to 0.000366185
Heightened Def Con from 0.000366185 to 0.000366185
Heightened Def Con from 0.000366185 to 0.000366185
Heightened Def Con from 0.000366185 to 0.000366185
Heightened Def Con from 0.000366185 to 0.000366185
Heightened Def Con from 0.000366185 to 0.000366185
Heightened Def Con from 0.000366185 to 0.000366185
Heightened Def Con from 0.000366185 to 0.000366185
Heightened Def Con from 0.000366185 to 0.000366185
Heightened Def Con from 0.000366185 to 0.000366185
Heightened Def Con from 0.000366185 to 0.000366185
Heightened Def Con from 0.000366186 to 0.000366186
Heightened Def Con from 0.000366186 to 0.000366186
Heightened Def Con from 0.000366186 to 0.000366186
Heightened Def Con from 0.000366186 to 0.000366186
Heightened Def Con from 0.000366186 to 0.000366187
Heightened Def Con from 0.000366188 to 0.000366188
Heightened Def Con from 0.000366188 to 0.000366188
Heightened Def Con from 0.000366404 +to 0.000366404
Heightened Def Con from 0.000366404 to 0.000366407
Heightened Def Con from 0.000366649 to 0.000366658
Heightened Def Con from 0.000366745 to 0.000366749
Heightened Def Con from 0.000369827 to 0.000369827
Heightened Def Con from 0.000369827 to 0.000369827
Heightened Def Con from 0.000369827 to 0.000369827
Heightened Def Con from 0.000369829 to 0.000369829
Heightened Def Con from 0.000369832 to 0.000369832
Heightened Def Con from 0.000369834 to 0.000369834
Heightened Def Con from 0.000369834 to 0.000369835
Heightened Def Con from 0.000369836 to 0.000369836
Heightened Def Con from 0.00037035 to 0.000370352
Heightened Def Con from 0.000370352 to 0.000370353
Heightened Def Con from 0.000370353 to 0.000370353
Heightened Def Con from 0.000370353 to 0.000370354
Heightened Def Con from 0.000370354 to 0.000370354
Heightened Def Con from 0.000370354 to 0.000370357
Heightened Def Con from 0.000370453 to 0.000370456
Heightened Def Con from 0.000371982 to 0.000371982
Heightened Def Con from 0.000372784 to 0.000372784
Heightened Def Con from 0.000372784 to 0.000372784
Heightened Def Con from 0.000372784 to 0.000372784
Heightened Def Con from 0.000372784 to 0.000372784
Heightened Def Con from 0.000372784 to 0.000372784
Heightened Def Con from 0.000372784 to 0.000372784
Heightened Def Con from 0.000372784 to 0.000372784
Heightened Def Con from 0.000372784 to 0.000372784
Heightened Def Con from 0.000372784 to 0.000372784
Heightened Def Con from 0.000372784 to 0.000372784
Heightened Def Con from 0.000372784 to 0.000372784
Heightened Def Con from 0.000372784 to 0.000372784
Heightened Def Con from 0.000372784 to 0.000372784
Heightened Def Con from 0.000372784 to 0.000372784
Heightened Def Con from 0.000372784 to 0.000372784
Heightened Def Con from 0.000372784 to 0.000372784
Heightened Def Con from 0.000372784 +to 0.000372784
Heightened Def Con from 0.000372784 to 0.000372784
Heightened Def Con from 0.000372784 to 0.000372784
Heightened Def Con from 0.000372784 to 0.000372784
Heightened Def Con from 0.000372784 to 0.000372784
Heightened Def Con from 0.000372784 +to 0.000372784
Heightened Def Con from 0.000372784 to 0.000372784
Heightened Def Con from 0.000372784 to 0.000372784
Heightened Def Con from 0.000372784 to 0.000372784
Heightened Def Con from 0.000372784 to 0.000372784
Heightened Def Con from 0.000372784 to 0.000372784
Heightened Def Con from 0.000372784 to 0.000372784
Heightened Def Con from 0.000372784 +++to 0.000372785
Heightened Def Con from 0.000372785 +to 0.000372785
Heightened Def Con from 0.000372785 +to 0.000372785
Heightened Def Con from 0.000372785 ++to 0.000372785
Heightened Def Con from 0.000372785 to 0.000372785
Heightened Def Con from 0.000372785 ++to 0.000372785
Heightened Def Con from 0.000372785 ++++++to 0.000372785
Heightened Def Con from 0.000372785 to 0.000372785
Heightened Def Con from 0.000372785 +++to 0.000372785
Heightened Def Con from 0.000372785 +to 0.000372785
Heightened Def Con from 0.000372785 +++to 0.000372785
Heightened Def Con from 0.000372785 ++++++++++++++++++++to 0.000372785
Heightened Def Con from 0.000372785 +to 0.000372785
Heightened Def Con from 0.000372785 +to 0.000372785
Heightened Def Con from 0.000372785 to 0.000372785
Heightened Def Con from 0.000372785 to 0.000372785
Heightened Def Con from 0.000372785 to 0.000372785
Heightened Def Con from 0.000372785 to 0.000372785
Heightened Def Con from 0.000372785 +to 0.000372785
Heightened Def Con from 0.000372785 +to 0.000372785
Heightened Def Con from 0.000372785 ++to 0.000372785
Heightened Def Con from 0.000372785 +++to 0.000372786
Heightened Def Con from 0.000372786 ++++to 0.000372786
Heightened Def Con from 0.000372786 +to 0.000372786
Heightened Def Con from 0.000372786 ++to 0.000372786
Heightened Def Con from 0.000372786 +to 0.000372786
Heightened Def Con from 0.000372786 to 0.000372786
Heightened Def Con from 0.000372786 to 0.000372786
Heightened Def Con from 0.000372786 to 0.000372786
Heightened Def Con from 0.000372786 to 0.000372786
Heightened Def Con from 0.000372786 +++to 0.000372786
Heightened Def Con from 0.000372786 to 0.000372786
Heightened Def Con from 0.000372786 +to 0.000372786
Heightened Def Con from 0.000372786 to 0.000372786
Heightened Def Con from 0.000372786 to 0.000372786
Heightened Def Con from 0.000372786 +to 0.000372786
Heightened Def Con from 0.000372786 to 0.000372786
Heightened Def Con from 0.000372786 +to 0.000372786
Heightened Def Con from 0.000372786 to 0.000372786
Heightened Def Con from 0.000372786 +to 0.000372786
Heightened Def Con from 0.000372786 to 0.000372786
Heightened Def Con from 0.000372786 +to 0.000372786
Heightened Def Con from 0.000372786 to 0.000372786
Heightened Def Con from 0.000372786 to 0.000372786
Heightened Def Con from 0.000372786 +to 0.000372786
Heightened Def Con from 0.000372786 to 0.000372786
Heightened Def Con from 0.000372786 +to 0.000372786
Heightened Def Con from 0.000372786 +to 0.000372786
Heightened Def Con from 0.000372786 ++to 0.000372786
Heightened Def Con from 0.000372786 ++to 0.000372786
Heightened Def Con from 0.000372786 ++to 0.000372786
Heightened Def Con from 0.000372786 to 0.000372786
Heightened Def Con from 0.000372786 +to 0.000372786
Heightened Def Con from 0.000372786 to 0.000372786
Heightened Def Con from 0.000372786 to 0.000372786
Heightened Def Con from 0.000372786 to 0.000372786
Heightened Def Con from 0.000372786 to 0.000372786
Heightened Def Con from 0.000372786 to 0.000372786
Heightened Def Con from 0.000372786 to 0.000372786
Heightened Def Con from 0.000372786 to 0.000372786
Heightened Def Con from 0.000372786 +to 0.000372786
Heightened Def Con from 0.000372786 +++to 0.000372786
Heightened Def Con from 0.000372786 ++to 0.000372786
Heightened Def Con from 0.000372786 to 0.000372786
Heightened Def Con from 0.000372786 ++to 0.000372787
Heightened Def Con from 0.000372787 to 0.000372787
Heightened Def Con from 0.000372787 to 0.000372787
Heightened Def Con from 0.000372787 to 0.000372787
Heightened Def Con from 0.000372787 to 0.000372787
Heightened Def Con from 0.000372787 to 0.000372787
Heightened Def Con from 0.000372787 to 0.000372787
Heightened Def Con from 0.000372787 to 0.000372787
Heightened Def Con from 0.000372787 to 0.000372787
Heightened Def Con from 0.000372787 +to 0.000372787
Heightened Def Con from 0.000372787 +to 0.000372787
Heightened Def Con from 0.000372787 to 0.000372787
Heightened Def Con from 0.000372787 to 0.000372787
Heightened Def Con from 0.000372787 ++to 0.000372787
Heightened Def Con from 0.000372787 ++++to 0.000372787
Heightened Def Con from 0.000372787 to 0.000372788
Heightened Def Con from 0.000372788 to 0.000372788
Heightened Def Con from 0.000372788 to 0.000372789
Heightened Def Con from 0.000372789 to 0.000372789
Heightened Def Con from 0.000372789 to 0.000372789
Heightened Def Con from 0.000372789 to 0.000372789
Heightened Def Con from 0.000372789 +to 0.000372789
Heightened Def Con from 0.000372789 ++to 0.000372789
Heightened Def Con from 0.000372789 to 0.000372789
Heightened Def Con from 0.000372789 to 0.000372789
Heightened Def Con from 0.000372789 to 0.00037279
Heightened Def Con from 0.00037279 to 0.00037279
Heightened Def Con from 0.00037279 to 0.000372791
Heightened Def Con from 0.000372791 to 0.000372791
Heightened Def Con from 0.000372791 +to 0.000372791
Heightened Def Con from 0.000372791 to 0.000372791
Heightened Def Con from 0.000372791 to 0.000372791
Heightened Def Con from 0.000372791 to 0.000372791
Heightened Def Con from 0.000372791 to 0.000372791
Heightened Def Con from 0.000372791 to 0.000372791
Heightened Def Con from 0.000372791 to 0.000372791
Heightened Def Con from 0.000372791 +to 0.000372791
Heightened Def Con from 0.000372791 +to 0.000372791
Heightened Def Con from 0.000372791 to 0.000372791
Heightened Def Con from 0.000372791 to 0.000372791
Heightened Def Con from 0.000372791 to 0.000372791
Heightened Def Con from 0.000372791 to 0.000372791
Heightened Def Con from 0.000372791 to 0.000372791
Heightened Def Con from 0.000372791 to 0.000372791
Heightened Def Con from 0.000372791 to 0.000372791
Heightened Def Con from 0.000372791 to 0.000372791
Heightened Def Con from 0.000372791 to 0.000372791
Heightened Def Con from 0.000372791 to 0.000372792
Heightened Def Con from 0.000372792 to 0.000372792
Heightened Def Con from 0.000372792 to 0.000372792
Heightened Def Con from 0.000372792 to 0.000372792
Heightened Def Con from 0.000372792 to 0.000372792
Heightened Def Con from 0.000372792 to 0.000372792
Heightened Def Con from 0.000372792 to 0.000372792
Heightened Def Con from 0.000372792 to 0.000372792
Heightened Def Con from 0.000372792 to 0.000372793
Heightened Def Con from 0.000372793 to 0.000372793
Heightened Def Con from 0.000372793 to 0.000372793
Heightened Def Con from 0.000372793 to 0.000372793
Heightened Def Con from 0.000372793 to 0.000372793
Heightened Def Con from 0.000372793 to 0.000372793
Heightened Def Con from 0.000372794 to 0.000372795
Heightened Def Con from 0.000372795 to 0.000372795
Heightened Def Con from 0.000375989 to 0.000375991
Heightened Def Con from 0.000376468 to 0.000376468
Heightened Def Con from 0.000376468 to 0.000376469
Heightened Def Con from 0.000376469 to 0.000376469
Heightened Def Con from 0.00037647 to 0.00037647
Heightened Def Con from 0.000376471 to 0.000376472
Heightened Def Con from 0.000376472 to 0.000376472
Heightened Def Con from 0.000376473 to 0.000376473
Heightened Def Con from 0.000376474 to 0.000376474
Heightened Def Con from 0.000376966 to 0.000376967
Heightened Def Con from 0.000376967 +to 0.000376968
Heightened Def Con from 0.000376971 to 0.000376973
Heightened Def Con from 0.000377136 to 0.000377139
Heightened Def Con from 0.000377249 to 0.000377249
Heightened Def Con from 0.000379298 to 0.000379298
Heightened Def Con from 0.000379298 to 0.000379301
Heightened Def Con from 0.000379385 to 0.000379385
Heightened Def Con from 0.000379385 to 0.000379385
Heightened Def Con from 0.000379385 to 0.000379385
Heightened Def Con from 0.000379385 to 0.000379385
Heightened Def Con from 0.000379385 to 0.000379385
Heightened Def Con from 0.000379385 to 0.000379385
Heightened Def Con from 0.000379385 +to 0.000379385
Heightened Def Con from 0.000379385 to 0.000379385
Heightened Def Con from 0.000379385 to 0.000379385
Heightened Def Con from 0.000379385 to 0.000379385
Heightened Def Con from 0.000379385 to 0.000379385
Heightened Def Con from 0.000379385 to 0.000379385
Heightened Def Con from 0.000379385 to 0.000379385
[...]
Heightened Def Con from 0.000765929 to 0.000765929
Heightened Def Con from 0.000765929 +++++++to 0.00076593
Heightened Def Con from 0.00076593 +to 0.00076593
Heightened Def Con from 0.00076593 ++to 0.00076593
Heightened Def Con from 0.00076593 +to 0.00076593
Heightened Def Con from 0.00076593 +to 0.00076593
Heightened Def Con from 0.00076593 to 0.00076593
Heightened Def Con from 0.00076593 +to 0.00076593
Heightened Def Con from 0.00076593 to 0.00076593
Heightened Def Con from 0.00076593 to 0.00076593
Heightened Def Con from 0.00076593 to 0.00076593
Heightened Def Con from 0.00076593 to 0.00076593
Heightened Def Con from 0.00076593 +++++to 0.00076593
Heightened Def Con from 0.00076593 ++to 0.00076593
Heightened Def Con from 0.00076593 to 0.00076593
Heightened Def Con from 0.00076593 ++to 0.00076593
Heightened Def Con from 0.00076593 to 0.00076593
Heightened Def Con from 0.00076593 +to 0.00076593
Heightened Def Con from 0.00076593 +to 0.00076593
Heightened Def Con from 0.00076593 to 0.00076593
Heightened Def Con from 0.00076593 to 0.00076593
Heightened Def Con from 0.00076593 to 0.00076593
Heightened Def Con from 0.00076593 to 0.00076593
Heightened Def Con from 0.00076593 to 0.00076593
Heightened Def Con from 0.00076593 to 0.00076593
Heightened Def Con from 0.00076593 to 0.00076593
Heightened Def Con from 0.00076593 to 0.00076593
Heightened Def Con from 0.00076593 to 0.00076593
Heightened Def Con from 0.00076593 ++++to 0.00076593
Heightened Def Con from 0.00076593 to 0.00076593
Heightened Def Con from 0.00076593 to 0.00076593
Heightened Def Con from 0.00076593 to 0.00076593
Heightened Def Con from 0.00076593 ++to 0.00076593
Heightened Def Con from 0.00076593 to 0.00076593
Heightened Def Con from 0.00076593 ++to 0.00076593
Heightened Def Con from 0.00076593 +to 0.00076593
Heightened Def Con from 0.00076593 ++to 0.00076593
Heightened Def Con from 0.00076593 to 0.00076593
Heightened Def Con from 0.00076593 +++++++to 0.00076593
Heightened Def Con from 0.00076593 to 0.00076593
Heightened Def Con from 0.00076593 +++++to 0.00076593
Heightened Def Con from 0.00076593 to 0.00076593
Heightened Def Con from 0.00076593 ++to 0.00076593
Heightened Def Con from 0.00076593 to 0.00076593
Heightened Def Con from 0.00076593 +to 0.00076593
Heightened Def Con from 0.00076593 +to 0.000765931
Heightened Def Con from 0.000765931 +to 0.000765931
Heightened Def Con from 0.000765931 ++to 0.000765931
Heightened Def Con from 0.000765931 ++to 0.000765931
Heightened Def Con from 0.000765931 to 0.000765931
Heightened Def Con from 0.000765931 to 0.000765931
Heightened Def Con from 0.000765931 +to 0.000765931
Heightened Def Con from 0.000765931 to 0.000765931
Heightened Def Con from 0.000765931 +to 0.000765931
Heightened Def Con from 0.000765931 +to 0.000765931
Heightened Def Con from 0.000765931 +to 0.000765931
Heightened Def Con from 0.000765931 to 0.000765931
Heightened Def Con from 0.000765931 ++to 0.000765931
Heightened Def Con from 0.000765931 ++to 0.000765931
Heightened Def Con from 0.000765931 to 0.000765931
Heightened Def Con from 0.000765931 +to 0.000765931
Heightened Def Con from 0.000765931 +to 0.000765931
Heightened Def Con from 0.000765931 +to 0.000765931
Heightened Def Con from 0.000765931 ++to 0.000765931
Heightened Def Con from 0.000765931 to 0.000765931
Heightened Def Con from 0.000765931 +to 0.000765931
Heightened Def Con from 0.000765931 to 0.000765931
Heightened Def Con from 0.000765931 to 0.000765931
Heightened Def Con from 0.000765931 to 0.000765931
Heightened Def Con from 0.000765931 to 0.000765931
Heightened Def Con from 0.000765931 ++++to 0.000765931
Heightened Def Con from 0.000765931 to 0.000765931
Heightened Def Con from 0.000765931 +to 0.000765931
Heightened Def Con from 0.000765931 to 0.000765931
Heightened Def Con from 0.000765931 +to 0.000765931
Heightened Def Con from 0.000765931 to 0.000765931
Heightened Def Con from 0.000765931 +to 0.000765931
Heightened Def Con from 0.000765931 to 0.000765931
Heightened Def Con from 0.000765931 to 0.000765931
Heightened Def Con from 0.000765931 +to 0.000765931
Heightened Def Con from 0.000765931 ++to 0.000765931
Heightened Def Con from 0.000765931 to 0.000765931
Heightened Def Con from 0.000765931 ++to 0.000765931
Heightened Def Con from 0.000765931 to 0.000765931
Heightened Def Con from 0.000765931 to 0.000765931
Heightened Def Con from 0.000765931 to 0.000765931
Heightened Def Con from 0.000765931 to 0.000765931
Heightened Def Con from 0.000765931 to 0.000765931
Heightened Def Con from 0.000765931 to 0.000765931
Heightened Def Con from 0.000765931 +to 0.000765931
Heightened Def Con from 0.000765931 to 0.000765931
Heightened Def Con from 0.000765931 to 0.000765931
Heightened Def Con from 0.000765931 to 0.000765931
Heightened Def Con from 0.000765931 +to 0.000765931
Heightened Def Con from 0.000765931 +to 0.000765931
Heightened Def Con from 0.000765931 to 0.000765931
Heightened Def Con from 0.000765931 to 0.000765931
Heightened Def Con from 0.000765931 to 0.000765931
Heightened Def Con from 0.000765931 +to 0.000765931
Heightened Def Con from 0.000765931 to 0.000765931
Heightened Def Con from 0.000765931 to 0.000765931
Heightened Def Con from 0.000765931 +to 0.000765932
Heightened Def Con from 0.000765932 to 0.000765932
Heightened Def Con from 0.000765932 to 0.000765932
Heightened Def Con from 0.000765932 to 0.000765932
Heightened Def Con from 0.000765932 to 0.000765932
Heightened Def Con from 0.000765932 to 0.000765933
Heightened Def Con from 0.000765933 ++to 0.000765934
Heightened Def Con from 0.000765934 +to 0.000765934
Heightened Def Con from 0.000765934 to 0.000765934
Heightened Def Con from 0.000765934 +to 0.000765934
Heightened Def Con from 0.000765934 to 0.000765934
Heightened Def Con from 0.000765934 to 0.000765934
Heightened Def Con from 0.000765934 to 0.000765934
Heightened Def Con from 0.000765934 +to 0.000765934
Heightened Def Con from 0.000765934 +to 0.000765934
Heightened Def Con from 0.000765934 to 0.000765934
Heightened Def Con from 0.000765934 to 0.000765934
Heightened Def Con from 0.000765934 to 0.000765934
Heightened Def Con from 0.000765934 to 0.000765934
Heightened Def Con from 0.000765934 to 0.000765934
Heightened Def Con from 0.000765934 to 0.000765934
Heightened Def Con from 0.000765934 +to 0.000765934
Heightened Def Con from 0.000765934 to 0.000765934
Heightened Def Con from 0.000765934 to 0.000765934
Heightened Def Con from 0.000765934 to 0.000765934
Heightened Def Con from 0.000765934 to 0.000765934
Heightened Def Con from 0.000765934 to 0.000765934
Heightened Def Con from 0.000765934 to 0.000765934
Heightened Def Con from 0.000765934 to 0.000765935
Heightened Def Con from 0.000765935 to 0.000765935
Heightened Def Con from 0.000765935 to 0.000765935
Heightened Def Con from 0.000765935 to 0.000765935
Heightened Def Con from 0.000765935 to 0.000765935
Heightened Def Con from 0.000765935 to 0.000765935
Heightened Def Con from 0.000765935 to 0.000765935
Heightened Def Con from 0.000765935 to 0.000765935
Heightened Def Con from 0.000765935 to 0.000765935
Heightened Def Con from 0.000765935 to 0.000765935
Heightened Def Con from 0.000765935 to 0.000765935
Heightened Def Con from 0.000765935 to 0.000765935
Heightened Def Con from 0.000765935 to 0.000765936
Heightened Def Con from 0.000765936 to 0.000765936
Heightened Def Con from 0.000765936 to 0.000765936
Heightened Def Con from 0.000765936 to 0.000765936
Heightened Def Con from 0.000765936 to 0.000765936
Heightened Def Con from 0.000765936 to 0.000765936
Heightened Def Con from 0.000765936 to 0.000765936
Heightened Def Con from 0.000765936 to 0.000765936
Heightened Def Con from 0.000765936 to 0.000765936
Heightened Def Con from 0.000765936 to 0.000765936
Heightened Def Con from 0.000765936 to 0.000765936
Heightened Def Con from 0.000765936 to 0.000765936
Heightened Def Con from 0.000765936 to 0.000765936
Heightened Def Con from 0.000765936 to 0.000765936
Heightened Def Con from 0.000765936 to 0.000765936
Heightened Def Con from 0.000765936 to 0.000765936
Heightened Def Con from 0.000765936 to 0.000765936
Heightened Def Con from 0.000765936 to 0.000765936
Heightened Def Con from 0.000765936 to 0.000765936
Heightened Def Con from 0.000765936 to 0.000765936
Heightened Def Con from 0.000765936 to 0.000765936
Heightened Def Con from 0.000765936 to 0.000765936
Heightened Def Con from 0.000765936 to 0.000765936
Heightened Def Con from 0.000765936 to 0.000765936
Heightened Def Con from 0.000765936 to 0.000765936
Heightened Def Con from 0.000765936 to 0.000765936
Heightened Def Con from 0.000765937 to 0.000765937
Heightened Def Con from 0.000765937 to 0.000765937
Heightened Def Con from 0.000765937 to 0.000765937
Heightened Def Con from 0.000765937 to 0.000765937
Heightened Def Con from 0.000765937 to 0.000765937
Heightened Def Con from 0.000765937 to 0.000765937
Heightened Def Con from 0.000765937 to 0.000765937
Heightened Def Con from 0.000765937 to 0.000765937
Heightened Def Con from 0.000765937 to 0.000765937
Heightened Def Con from 0.000765937 to 0.000765937
Heightened Def Con from 0.000765937 to 0.000765937
Heightened Def Con from 0.000765937 to 0.000765937
Heightened Def Con from 0.000765937 to 0.000765937
Heightened Def Con from 0.000765937 to 0.000765937
Heightened Def Con from 0.000765937 to 0.000765937
Heightened Def Con from 0.000765937 to 0.000765937
Heightened Def Con from 0.000765937 to 0.000765937
Heightened Def Con from 0.000765937 to 0.000765937
Heightened Def Con from 0.000765937 to 0.000765937
Heightened Def Con from 0.000765937 to 0.000765937
Heightened Def Con from 0.000765937 +to 0.000765937
Heightened Def Con from 0.000765937 to 0.000765938
Heightened Def Con from 0.000765938 to 0.000765938
Heightened Def Con from 0.000765938 to 0.000765938
Heightened Def Con from 0.000765938 to 0.000765938
Heightened Def Con from 0.000765938 to 0.000765938
Heightened Def Con from 0.000765938 to 0.000765938
Heightened Def Con from 0.000765939 to 0.000765939
Heightened Def Con from 0.000765939 to 0.000765939
Heightened Def Con from 0.000765939 to 0.000765939
Heightened Def Con from 0.000765939 to 0.000765939
Heightened Def Con from 0.00076594 to 0.00076594
Heightened Def Con from 0.000765946 to 0.000765947
Heightened Def Con from 0.000766657 to 0.00076666
Heightened Def Con from 0.000767721 to 0.000767721
Heightened Def Con from 0.000769044 to 0.000769045
Heightened Def Con from 0.000769045 to 0.000769045
Heightened Def Con from 0.000769045 to 0.000769045
Heightened Def Con from 0.000769045 to 0.000769045
Heightened Def Con from 0.000769045 to 0.000769046
Heightened Def Con from 0.000769046 to 0.000769048
Heightened Def Con from 0.000769048 to 0.000769049
Heightened Def Con from 0.000769049 to 0.000769049
Heightened Def Con from 0.000769049 to 0.000769049
Heightened Def Con from 0.000769049 to 0.000769052
Heightened Def Con from 0.000769322 to 0.000769322
Heightened Def Con from 0.000769322 to 0.000769325
Heightened Def Con from 0.000770373 to 0.000770373
Heightened Def Con from 0.000770373 to 0.000770376
Heightened Def Con from 0.000771558 to 0.000771558
Heightened Def Con from 0.000771558 to 0.000771558
Heightened Def Con from 0.000771558 +to 0.000771558
Heightened Def Con from 0.000771558 +to 0.000771558
Heightened Def Con from 0.000771558 +to 0.000771558
Heightened Def Con from 0.000771558 +to 0.000771558
Heightened Def Con from 0.000771558 ++++to 0.000771558
Heightened Def Con from 0.000771558 ++to 0.000771559
Heightened Def Con from 0.000771559 +to 0.000771559
Heightened Def Con from 0.000771559 to 0.000771559
Heightened Def Con from 0.000771559 +to 0.00077156
Heightened Def Con from 0.00077156 to 0.000771561
Heightened Def Con from 0.000771561 to 0.000771561
Heightened Def Con from 0.000771561 to 0.000771561
Heightened Def Con from 0.000771561 to 0.000771562
Heightened Def Con from 0.000771562 to 0.000771563
Heightened Def Con from 0.000771563 to 0.000771564
Heightened Def Con from 0.000772271 to 0.000772272
Heightened Def Con from 0.000772601 to 0.000772601
Heightened Def Con from 0.000772601 to 0.000772601
Heightened Def Con from 0.000772601 to 0.000772601
Heightened Def Con from 0.000772601 to 0.000772601
Heightened Def Con from 0.000772601 to 0.000772601
Heightened Def Con from 0.000772601 to 0.000772601
Heightened Def Con from 0.000772601 to 0.000772601
Heightened Def Con from 0.000772601 to 0.000772601
Heightened Def Con from 0.000772601 to 0.000772601
Heightened Def Con from 0.000772601 to 0.000772601
Heightened Def Con from 0.000772601 to 0.000772601
Heightened Def Con from 0.000772601 to 0.000772601
Heightened Def Con from 0.000772601 to 0.000772601
Heightened Def Con from 0.000772601 +to 0.000772601
Heightened Def Con from 0.000772601 to 0.000772601
Heightened Def Con from 0.000772601 to 0.000772601
Heightened Def Con from 0.000772601 to 0.000772601
Heightened Def Con from 0.000772601 to 0.000772601
Heightened Def Con from 0.000772601 to 0.000772601
Heightened Def Con from 0.000772601 to 0.000772601
Heightened Def Con from 0.000772601 to 0.000772601
Heightened Def Con from 0.000772601 to 0.000772601
Heightened Def Con from 0.000772601 +to 0.000772601
Heightened Def Con from 0.000772601 ++to 0.000772601
Heightened Def Con from 0.000772601 to 0.000772601
Heightened Def Con from 0.000772601 to 0.000772601
Heightened Def Con from 0.000772601 ++to 0.000772601
Heightened Def Con from 0.000772601 +to 0.000772601
Heightened Def Con from 0.000772601 to 0.000772601
Heightened Def Con from 0.000772601 to 0.000772601
Heightened Def Con from 0.000772601 to 0.000772601
Heightened Def Con from 0.000772601 to 0.000772601
Heightened Def Con from 0.000772601 to 0.000772601
Heightened Def Con from 0.000772601 +to 0.000772601
Heightened Def Con from 0.000772601 to 0.000772601
Heightened Def Con from 0.000772601 to 0.000772601
Heightened Def Con from 0.000772601 to 0.000772601
Heightened Def Con from 0.000772601 to 0.000772601
Heightened Def Con from 0.000772601 to 0.000772601
Heightened Def Con from 0.000772601 +to 0.000772601
Heightened Def Con from 0.000772601 to 0.000772601
Heightened Def Con from 0.000772601 to 0.000772601
Heightened Def Con from 0.000772601 to 0.000772601
Heightened Def Con from 0.000772601 to 0.000772601
Heightened Def Con from 0.000772601 to 0.000772601
Heightened Def Con from 0.000772601 to 0.000772601
Heightened Def Con from 0.000772601 to 0.000772601
Heightened Def Con from 0.000772601 to 0.000772601
Heightened Def Con from 0.000772601 to 0.000772601
Heightened Def Con from 0.000772601 to 0.000772601
Heightened Def Con from 0.000772601 to 0.000772601
Heightened Def Con from 0.000772601 to 0.000772601
Heightened Def Con from 0.000772601 to 0.000772601
Heightened Def Con from 0.000772601 to 0.000772601
Heightened Def Con from 0.000772601 +to 0.000772601
Heightened Def Con from 0.000772601 ++to 0.000772601
Heightened Def Con from 0.000772601 to 0.000772601
Heightened Def Con from 0.000772601 to 0.000772601
Heightened Def Con from 0.000772601 to 0.000772601
Heightened Def Con from 0.000772601 to 0.000772601
Heightened Def Con from 0.000772601 to 0.000772601
Heightened Def Con from 0.000772601 to 0.000772601
Heightened Def Con from 0.000772601 +to 0.000772601
Heightened Def Con from 0.000772601 +to 0.000772601
Heightened Def Con from 0.000772601 ++to 0.000772601
Heightened Def Con from 0.000772601 to 0.000772601
Heightened Def Con from 0.000772601 to 0.000772601
Heightened Def Con from 0.000772601 to 0.000772601
Heightened Def Con from 0.000772601 ++to 0.000772601
Heightened Def Con from 0.000772601 to 0.000772601
Heightened Def Con from 0.000772601 to 0.000772601
Heightened Def Con from 0.000772601 to 0.000772601
Heightened Def Con from 0.000772601 to 0.000772601
Heightened Def Con from 0.000772601 +to 0.000772601
Heightened Def Con from 0.000772601 to 0.000772601
Heightened Def Con from 0.000772601 +++to 0.000772601
Heightened Def Con from 0.000772601 to 0.000772601
Heightened Def Con from 0.000772601 ++to 0.000772601
Heightened Def Con from 0.000772601 to 0.000772601
Heightened Def Con from 0.000772601 ++to 0.000772601
Heightened Def Con from 0.000772601 to 0.000772601
Heightened Def Con from 0.000772601 to 0.000772601
Heightened Def Con from 0.000772601 +to 0.000772601
Heightened Def Con from 0.000772601 to 0.000772601
Heightened Def Con from 0.000772601 to 0.000772601
Heightened Def Con from 0.000772601 +to 0.000772601
Heightened Def Con from 0.000772601 to 0.000772601
Heightened Def Con from 0.000772601 to 0.000772601
Heightened Def Con from 0.000772601 to 0.000772601
Heightened Def Con from 0.000772601 +to 0.000772601
Heightened Def Con from 0.000772601 to 0.000772601
Heightened Def Con from 0.000772601 +to 0.000772601
Heightened Def Con from 0.000772601 to 0.000772601
Heightened Def Con from 0.000772601 to 0.000772601
Heightened Def Con from 0.000772601 to 0.000772601
Heightened Def Con from 0.000772601 to 0.000772601
Heightened Def Con from 0.000772601 to 0.000772601
Heightened Def Con from 0.000772601 to 0.000772601
Heightened Def Con from 0.000772601 to 0.000772601
Heightened Def Con from 0.000772601 +++to 0.000772601
Heightened Def Con from 0.000772601 +to 0.000772601
Heightened Def Con from 0.000772601 +to 0.000772601
Heightened Def Con from 0.000772601 +to 0.000772601
Heightened Def Con from 0.000772601 ++++++to 0.000772601
Heightened Def Con from 0.000772601 to 0.000772601
Heightened Def Con from 0.000772601 +to 0.000772601
Heightened Def Con from 0.000772601 ++++++to 0.000772601
Heightened Def Con from 0.000772601 to 0.000772601
Heightened Def Con from 0.000772601 ++++++++++++++++++to 0.000772602
Heightened Def Con from 0.000772602 ++to 0.000772602
Heightened Def Con from 0.000772602 +to 0.000772602
Heightened Def Con from 0.000772602 +++++++++++++++++++++++++++++++++++++++++++++to 0.000772602
Heightened Def Con from 0.000772602 +to 0.000772602
Heightened Def Con from 0.000772602 to 0.000772602
Heightened Def Con from 0.000772602 to 0.000772602
Heightened Def Con from 0.000772602 to 0.000772602
Heightened Def Con from 0.000772602 +to 0.000772602
Heightened Def Con from 0.000772602 to 0.000772602
Heightened Def Con from 0.000772602 +to 0.000772602
Heightened Def Con from 0.000772602 +to 0.000772602
Heightened Def Con from 0.000772602 to 0.000772602
Heightened Def Con from 0.000772602 +to 0.000772602
Heightened Def Con from 0.000772602 +to 0.000772602
Heightened Def Con from 0.000772602 +to 0.000772602
Heightened Def Con from 0.000772602 ++to 0.000772602
Heightened Def Con from 0.000772602 ++++++++++++++++to 0.000772602
Heightened Def Con from 0.000772602 ++++++++++++++++++to 0.000772602
Heightened Def Con from 0.000772602 +++++++to 0.000772602
Heightened Def Con from 0.000772602 +to 0.000772602
Heightened Def Con from 0.000772602 to 0.000772602
Heightened Def Con from 0.000772602 ++to 0.000772602
Heightened Def Con from 0.000772602 +++++to 0.000772602
Heightened Def Con from 0.000772602 +++++++++to 0.000772602
Heightened Def Con from 0.000772602 ++++++to 0.000772602
Heightened Def Con from 0.000772602 ++++++++to 0.000772602
Heightened Def Con from 0.000772602 ++++++++++++to 0.000772602
Heightened Def Con from 0.000772602 +to 0.000772602
Heightened Def Con from 0.000772602 ++++++to 0.000772602
Heightened Def Con from 0.000772602 +++++to 0.000772602
Heightened Def Con from 0.000772602 ++++++++to 0.000772602
Heightened Def Con from 0.000772602 ++++++++++++to 0.000772602
Heightened Def Con from 0.000772602 ++++++to 0.000772602
Heightened Def Con from 0.000772602 +to 0.000772602
Heightened Def Con from 0.000772602 +++to 0.000772602

Date: Wed Aug 04 09:18:44 2021
Total elapsed time: 546.611 seconds.

tnom = 27
temp = 27
method = modified trap
totiter = 10155139
traniter = 10154842
tranpoints = 1443307
accept = 930403
rejected = 538376
matrix size = 72
fillins = 172
solver = Normal
Thread vector: 87.3/54.7[3] 51.9/18.5[3] 23.0/17.9[3] 1.1/3.6[1]  2592/500
Matrix Compiler1: 12.83 KB object code size  12.8/8.1/[2.6]
Matrix Compiler2: 8.43 KB object code size  1.8/4.0/[1.2]

