Circuit: * C:\Users\kefer\Documents\Berkeley\Research\Charger\Simulations\FCML\FCML_lossSim\FCML_lossSim\Unfolder.asc

Direct Newton iteration for .op point succeeded.

Date: Wed Nov 03 16:18:14 2021
Total elapsed time: 15.869 seconds.

tnom = 27
temp = 27
method = modified trap
totiter = 204500
traniter = 204496
tranpoints = 69146
accept = 67549
rejected = 1597
matrix size = 36
fillins = 20
solver = Normal
Matrix Compiler1: 3.49 KB object code size  1.5/0.9/[0.3]
Matrix Compiler2: 3.25 KB object code size  0.6/1.1/[0.5]

