Circuit: * C:\Users\kefer\Documents\Berkeley\Research\Charger\Simulations\FCML\Buck_EMI\Boost_EMI.asc

L2: both pins shorted together -- ignoring.
.OP point found by inspection.
Ignoring empty pin current: Ix(x2:g)
Ignoring empty pin current: Ix(x3:g)
Ignoring empty pin current: Ix(x2:g)
Ignoring empty pin current: Ix(x3:g)

Date: Thu Sep 16 15:45:35 2021
Total elapsed time: 25.810 seconds.

tnom = 27
temp = 27
method = modified trap
totiter = 2341087
traniter = 2341087
tranpoints = 1056404
accept = 991921
rejected = 64483
matrix size = 15
fillins = 1
solver = Normal
Matrix Compiler1: 668 bytes object code size  0.2/0.1/[0.1]
Matrix Compiler2: off  [0.2]/0.2/0.2

