Circuit: * C:\Users\kefer\Documents\Berkeley\Research\Charger\Simulations\FCML\Buck_EMI\Buck_EMI.asc

Limiting rise time of source v2 to 8e-007
Limiting fall time of source v2 to 8e-007
.OP point found by inspection.
Ignoring empty pin current: Ix(x2:g)
Ignoring empty pin current: Ix(x2:g)

Date: Thu Sep 16 10:56:03 2021
Total elapsed time: 27.569 seconds.

tnom = 27
temp = 27
method = modified trap
totiter = 9020245
traniter = 9020245
tranpoints = 4443283
accept = 3175192
rejected = 1268091
matrix size = 28
fillins = 19
solver = Normal
Matrix Compiler1: 2.58 KB object code size  0.5/0.3/[0.2]
Matrix Compiler2: 2.50 KB object code size  0.3/0.3/[0.2]

