Circuit: * C:\Users\kefer\Documents\Berkeley\Research\Charger\Simulations\FCML\Draft1.asc

.OP point found by inspection.
Ignoring empty pin current: Ix(x2:g)
Ignoring empty pin current: Ix(x2:g)

Date: Tue Sep 07 15:59:58 2021
Total elapsed time: 10.368 seconds.

tnom = 27
temp = 27
method = modified trap
totiter = 10204168
traniter = 10204168
tranpoints = 5058982
accept = 5043981
rejected = 15001
matrix size = 6
fillins = 0
solver = Normal
Matrix Compiler1:       8 opcodes  0.0/[0.0]/0.0
Matrix Compiler2: off  [0.0]/0.0/0.1

