Questionable use of curly braces in "b1 vcmuv 0 v={(v(vx,com)+v(vy,com))*1e6}"
    Error: undefined symbol in: "([v](vx,com)+v(vy,com))*1e6"
Questionable use of curly braces in "b2 vdmuv 0 v={(v(vx,com)-v(vy,com))*0.5e6}"
    Error: undefined symbol in: "([v](vx,com)-v(vy,com))*0.5e6"
Questionable use of curly braces in "b3 vcm 0 v={(v(vx,com)+v(vy,com))}"
    Error: undefined symbol in: "([v](vx,com)+v(vy,com))"
Questionable use of curly braces in "b4 vdm 0 v={(v(vx,com)-v(vy,com))*0.5}"
    Error: undefined symbol in: "([v](vx,com)-v(vy,com))*0.5"
Circuit: * C:\Users\kefer\Documents\Berkeley\Research\Charger\Simulations\FCML\FCML_EMI\FCMLEMI_Ting.asc

WARNING: Less than two connections to node VCMUV.  This node is used by B1.
WARNING: Less than two connections to node VDMUV.  This node is used by B2.
WARNING: Less than two connections to node VCM.  This node is used by B3.
WARNING: Less than two connections to node VDM.  This node is used by B4.
.OP point found by inspection.
Ignoring empty pin current: Ix(x11:g)
Ignoring empty pin current: Ix(x12:g)
Ignoring empty pin current: Ix(x13:g)
Ignoring empty pin current: Ix(x14:g)
Ignoring empty pin current: Ix(x15:g)
Ignoring empty pin current: Ix(x16:g)
Ignoring empty pin current: Ix(x17:g)
Ignoring empty pin current: Ix(x18:g)
Ignoring empty pin current: Ix(x19:g)
Ignoring empty pin current: Ix(x20:g)
Ignoring empty pin current: Ix(x11:g)
Ignoring empty pin current: Ix(x12:g)
Ignoring empty pin current: Ix(x13:g)
Ignoring empty pin current: Ix(x14:g)
Ignoring empty pin current: Ix(x15:g)
Ignoring empty pin current: Ix(x16:g)
Ignoring empty pin current: Ix(x17:g)
Ignoring empty pin current: Ix(x18:g)
Ignoring empty pin current: Ix(x19:g)
Ignoring empty pin current: Ix(x20:g)

Date: Thu Sep 09 15:21:15 2021
Total elapsed time: 12.843 seconds.

tnom = 27
temp = 27
method = modified trap
totiter = 4219841
traniter = 4219841
tranpoints = 1511757
accept = 1168187
rejected = 343570
matrix size = 47
fillins = 13
solver = Normal
Matrix Compiler1: 2.43 KB object code size  0.8/0.3/[0.2]
Matrix Compiler2: 3.37 KB object code size  0.4/0.6/[0.2]

